
 *******************************************************************************

         NASA-GLENN CHEMICAL EQUILIBRIUM PROGRAM CEA2, MAY 21, 2004
                   BY  BONNIE MCBRIDE AND SANFORD GORDON
      REFS: NASA RP-1311, PART I, 1994 AND NASA RP-1311, PART II, 1996

 *******************************************************************************



 problem    o/f=1.0,2.0,3.0,
       rocket  equilibrium  frozen  nfz=1
   p,bar=20,20,
   pi/p=19.643,
 react
   fuel=C2H5OH(L) wt=75  t,k=298
   fuel=H2O(L) wt=25  t,k=298
   oxid=O2 wt=100
 end

 OPTIONS: TP=F  HP=F  SP=F  TV=F  UV=F  SV=F  DETN=F  SHOCK=F  REFL=F  INCD=F
 RKT=T  FROZ=T  EQL=T  IONS=F  SIUNIT=T  DEBUGF=F  SHKDBG=F  DETDBG=F  TRNSPT=F

 TRACE= 0.00E+00  S/R= 0.000000E+00  H/R= 0.000000E+00  U/R= 0.000000E+00

 Pc,BAR =    20.000000    20.000000

 Pc/P =    19.6430

 SUBSONIC AREA RATIOS =

 SUPERSONIC AREA RATIOS =

 NFZ=  1  Mdot/Ac= 0.000000E+00  Ac/At= 0.000000E+00

    REACTANT          WT.FRAC   (ENERGY/R),K   TEMP,K  DENSITY
        EXPLODED FORMULA
 F: C2H5OH(L)        0.750000  -0.333786E+05   298.00  0.0000
          C  2.00000  H  6.00000  O  1.00000
 F: H2O(L)           0.250000  -0.343786E+05   298.00  0.0000
          H  2.00000  O  1.00000
 O: O2               1.000000   0.000000E+00     0.00  0.0000
          O  2.00000

  SPECIES BEING CONSIDERED IN THIS SYSTEM
 (CONDENSED PHASE MAY HAVE NAME LISTED SEVERAL TIMES)
  LAST thermo.inp UPDATE:    9/09/04

  g 7/97  *C               tpis79  *CH              g 4/02  CH2            
  g 4/02  CH3              g11/00  CH2OH            g 7/00  CH3O           
  g 8/99  CH4              g 7/00  CH3OH            srd 01  CH3OOH         
  tpis79  *CO              g 9/99  *CO2             tpis91  COOH           
  tpis91  *C2              g 6/01  C2H              g 1/91  C2H2,acetylene 
  g 5/01  C2H2,vinylidene  g 4/02  CH2CO,ketene     g 3/02  O(CH)2O        
  srd 01  HO(CO)2OH        g 7/01  C2H3,vinyl       g 6/96  CH3CO,acetyl   
  g 1/00  C2H4             g 8/88  C2H4O,ethylen-o  g 8/88  CH3CHO,ethanal 
  g 6/00  CH3COOH          srd 01  OHCH2COOH        g 7/00  C2H5           
  g 7/00  C2H6             g 8/88  C2H5OH           g 7/00  CH3OCH3        
  srd 01  CH3O2CH3         g 8/00  C2O              tpis79  *C3            
  n 4/98  C3H3,1-propynl   n 4/98  C3H3,2-propynl   g 2/00  C3H4,allene    
  g 1/00  C3H4,propyne     g 5/90  C3H4,cyclo-      g 3/01  C3H5,allyl     
  g 2/00  C3H6,propylene   g 1/00  C3H6,cyclo-      g 6/01  C3H6O,propylox 
  g 6/97  C3H6O,acetone    g 1/02  C3H6O,propanal   g 7/01  C3H7,n-propyl  
  g 9/85  C3H7,i-propyl    g 2/00  C3H8             g 2/00  C3H8O,1propanol
  g 2/00  C3H8O,2propanol  g 7/88  C3O2             g tpis  *C4            
  g 7/01  C4H2,butadiyne   g 8/00  C4H4,1,3-cyclo-  n10/92  C4H6,butadiene 
  n10/93  C4H6,1butyne     n10/93  C4H6,2butyne     g 8/00  C4H6,cyclo-    
  n 4/88  C4H8,1-butene    n 4/88  C4H8,cis2-buten  n 4/88  C4H8,tr2-butene
  n 4/88  C4H8,isobutene   g 8/00  C4H8,cyclo-      g10/00  (CH3COOH)2     
  n10/84  C4H9,n-butyl     n10/84  C4H9,i-butyl     g 1/93  C4H9,s-butyl   
  g 1/93  C4H9,t-butyl     g12/00  C4H10,n-butane   g 8/00  C4H10,isobutane
  g 8/00  *C5              g 5/90  C5H6,1,3cyclo-   g 1/93  C5H8,cyclo-    
  n 4/87  C5H10,1-pentene  g 2/01  C5H10,cyclo-     n10/84  C5H11,pentyl   
  g 1/93  C5H11,t-pentyl   n10/85  C5H12,n-pentane  n10/85  C5H12,i-pentane
  n10/85  CH3C(CH3)2CH3    g 2/93  C6H2             g11/00  C6H5,phenyl    
  g 8/00  C6H5O,phenoxy    g 8/00  C6H6             g 8/00  C6H5OH,phenol  
  g 1/93  C6H10,cyclo-     n 4/87  C6H12,1-hexene   g 6/90  C6H12,cyclo-   
  n10/83  C6H13,n-hexyl    g 6/01  C6H14,n-hexane   g 7/01  C7H7,benzyl    
  g 1/93  C7H8             g12/00  C7H8O,cresol-mx  n 4/87  C7H14,1-heptene
  n10/83  C7H15,n-heptyl   n10/85  C7H16,n-heptane  n10/85  C7H16,2-methylh
  n 4/89  C8H8,styrene     n10/86  C8H10,ethylbenz  n 4/87  C8H16,1-octene 
  n10/83  C8H17,n-octyl    n 4/85  C8H18,n-octane   n 4/85  C8H18,isooctane
  n10/83  C9H19,n-nonyl    g 3/01  C10H8,naphthale  n10/83  C10H21,n-decyl 
  g 8/00  C12H9,o-bipheny  g 8/00  C12H10,biphenyl  g 6/97  *H             
  g 1/01  HCO              g 6/01  HCCO             g 4/02  HO2            
  tpis78  *H2              g 5/01  HCHO,formaldehy  g 6/01  HCOOH          
  g 8/89  H2O              g 6/99  H2O2             g 6/01  (HCOOH)2       
  g 5/97  *O               g 4/02  *OH              tpis89  *O2            
  g 8/01  O3               n 4/83  C(gr)            n 4/83  C(gr)          
  n 4/83  C(gr)            g11/99  H2O(cr)          g 8/01  H2O(L)         
  g 8/01  H2O(L)         

 O/F =   1.000000

                       EFFECTIVE FUEL     EFFECTIVE OXIDANT        MIXTURE
 ENTHALPY                  h(2)/R              h(1)/R               h0/R
 (KG-MOL)(K)/KG       -0.10204839E+04      0.00000000E+00     -0.51024197E+03

 KG-FORM.WT./KG             bi(2)               bi(1)               b0i
  *C                   0.32560252E-01      0.00000000E+00      0.16280126E-01
  *H                   0.12543497E+00      0.00000000E+00      0.62717486E-01
  *O                   0.30157235E-01      0.62502344E-01      0.46329789E-01

 POINT ITN      T            C           H           O 
   1   21    2718.123     -14.337      -9.720     -17.849
 Pinf/Pt = 1.756353
   2    4    2500.610     -14.199      -9.844     -18.688
 Pinf/Pt = 1.763983
   2    2    2498.947     -14.198      -9.845     -18.696
 Pinf/Pt = 1.764037
   2    1    2498.935     -14.198      -9.845     -18.696
   3    4    1666.655     -12.461     -10.304     -24.263





              THEORETICAL ROCKET PERFORMANCE ASSUMING EQUILIBRIUM

           COMPOSITION DURING EXPANSION FROM INFINITE AREA COMBUSTOR

 Pin =   290.1 PSIA
 CASE =                

             REACTANT                    WT FRACTION      ENERGY      TEMP
                                          (SEE NOTE)     KJ/KG-MOL      K  
 FUEL        C2H5OH(L)                    0.7500000   -277526.835    298.000
 FUEL        H2O(L)                       0.2500000   -285841.390    298.000
 OXIDANT     O2                           1.0000000         0.000      0.000

 O/F=    1.00000  %FUEL= 50.000000  R,EQ.RATIO= 1.379652  PHI,EQ.RATIO= 1.562833

                 CHAMBER   THROAT     EXIT
 Pinf/P            1.0000   1.7640   19.643
 P, BAR            20.000   11.338   1.0182
 T, K             2718.12  2498.94  1666.66
 RHO, KG/CU M    1.8476 0 1.1424 0 1.5423-1
 H, KJ/KG        -4242.41 -4831.13 -6803.08
 U, KJ/KG        -5324.92 -5823.53 -7463.25
 G, KJ/KG        -37740.9 -35628.3 -27343.1
 S, KJ/(KG)(K)    12.3241  12.3241  12.3241

 M, (1/n)          20.877   20.937   20.991
 (dLV/dLP)t      -1.00284 -1.00134 -1.00001
 (dLV/dLT)p        1.0649   1.0327   1.0004
 Cp, KJ/(KG)(K)    2.9741   2.6721   2.2444
 GAMMAs            1.1751   1.1865   1.2145
 SON VEL,M/SEC     1127.9   1085.1    895.4
 MACH NUMBER        0.000    1.000    2.527

 PERFORMANCE PARAMETERS

 Ae/At                      1.0000   3.5518
 CSTAR, M/SEC               1613.3   1613.3
 CF                         0.6726   1.4027
 Ivac, M/SEC                1999.7   2554.8
 Isp, M/SEC                 1085.1   2263.0


 MOLE FRACTIONS

 *CO              0.22372  0.21977  0.18896
 *CO2             0.11616  0.12108  0.15277
 *H               0.00517  0.00287  0.00005
 *H2              0.14390  0.14826  0.18023
 H2O              0.50561  0.50573  0.47799
 *O               0.00011  0.00003  0.00000
 *OH              0.00517  0.00223  0.00001
 *O2              0.00015  0.00004  0.00000

  * THERMODYNAMIC PROPERTIES FITTED TO 20000.K

    PRODUCTS WHICH WERE CONSIDERED BUT WHOSE MOLE FRACTIONS
    WERE LESS THAN 5.000000E-06 FOR ALL ASSIGNED CONDITIONS

 *C              *CH             CH2             CH3             CH2OH          
 CH3O            CH4             CH3OH           CH3OOH          COOH           
 *C2             C2H             C2H2,acetylene  C2H2,vinylidene CH2CO,ketene   
 O(CH)2O         HO(CO)2OH       C2H3,vinyl      CH3CO,acetyl    C2H4           
 C2H4O,ethylen-o CH3CHO,ethanal  CH3COOH         OHCH2COOH       C2H5           
 C2H6            C2H5OH          CH3OCH3         CH3O2CH3        C2O            
 *C3             C3H3,1-propynl  C3H3,2-propynl  C3H4,allene     C3H4,propyne   
 C3H4,cyclo-     C3H5,allyl      C3H6,propylene  C3H6,cyclo-     C3H6O,propylox 
 C3H6O,acetone   C3H6O,propanal  C3H7,n-propyl   C3H7,i-propyl   C3H8           
 C3H8O,1propanol C3H8O,2propanol C3O2            *C4             C4H2,butadiyne 
 C4H4,1,3-cyclo- C4H6,butadiene  C4H6,1butyne    C4H6,2butyne    C4H6,cyclo-    
 C4H8,1-butene   C4H8,cis2-buten C4H8,tr2-butene C4H8,isobutene  C4H8,cyclo-    
 (CH3COOH)2      C4H9,n-butyl    C4H9,i-butyl    C4H9,s-butyl    C4H9,t-butyl   
 C4H10,n-butane  C4H10,isobutane *C5             C5H6,1,3cyclo-  C5H8,cyclo-    
 C5H10,1-pentene C5H10,cyclo-    C5H11,pentyl    C5H11,t-pentyl  C5H12,n-pentane
 C5H12,i-pentane CH3C(CH3)2CH3   C6H2            C6H5,phenyl     C6H5O,phenoxy  
 C6H6            C6H5OH,phenol   C6H10,cyclo-    C6H12,1-hexene  C6H12,cyclo-   
 C6H13,n-hexyl   C6H14,n-hexane  C7H7,benzyl     C7H8            C7H8O,cresol-mx
 C7H14,1-heptene C7H15,n-heptyl  C7H16,n-heptane C7H16,2-methylh C8H8,styrene   
 C8H10,ethylbenz C8H16,1-octene  C8H17,n-octyl   C8H18,n-octane  C8H18,isooctane
 C9H19,n-nonyl   C10H8,naphthale C10H21,n-decyl  C12H9,o-bipheny C12H10,biphenyl
 HCO             HCCO            HO2             HCHO,formaldehy HCOOH          
 H2O2            (HCOOH)2        O3              C(gr)           H2O(cr)        
 H2O(L)         

 NOTE. WEIGHT FRACTION OF FUEL IN TOTAL FUELS AND OF OXIDANT IN TOTAL OXIDANTS





           THEORETICAL ROCKET PERFORMANCE ASSUMING FROZEN COMPOSITION

 Pin =   290.1 PSIA
 CASE =                

             REACTANT                    WT FRACTION      ENERGY      TEMP
                                          (SEE NOTE)     KJ/KG-MOL      K  
 FUEL        C2H5OH(L)                    0.7500000   -277526.835    298.000
 FUEL        H2O(L)                       0.2500000   -285841.390    298.000
 OXIDANT     O2                           1.0000000         0.000      0.000

 O/F=    1.00000  %FUEL= 50.000000  R,EQ.RATIO= 1.379652  PHI,EQ.RATIO= 1.562833

                 CHAMBER   THROAT     EXIT
 Pinf/P            1.0000   1.7763   19.643
 P, BAR            20.000   11.259   1.0182
 T, K             2718.12  2464.70  1602.41
 RHO, KG/CU M    1.8476 0 1.1470 0 1.5955-1
 H, KJ/KG        -4242.41 -4834.98 -6757.91
 U, KJ/KG        -5324.92 -5816.56 -7396.08
 G, KJ/KG        -37740.9 -35210.2 -26506.2
 S, KJ/(KG)(K)    12.3241  12.3241  12.3241

 M, (1/n)          20.877   20.877   20.877
 Cp, KJ/(KG)(K)    2.3565   2.3189   2.1186
 GAMMAs            1.2034   1.2074   1.2315
 SON VEL,M/SEC     1141.3   1088.6    886.5
 MACH NUMBER        0.000    1.000    2.530

 PERFORMANCE PARAMETERS

 Ae/At                      1.0000   3.4894
 CSTAR, M/SEC               1601.6   1601.6
 CF                         0.6797   1.4004
 Ivac, M/SEC                1990.3   2527.5
 Isp, M/SEC                 1088.6   2243.0

 MOLE FRACTIONS

 *CO             0.22372   *CO2            0.11616   *H              0.00517
 *H2             0.14390   H2O             0.50561   *O              0.00011
 *OH             0.00517   *O2             0.00015

  * THERMODYNAMIC PROPERTIES FITTED TO 20000.K

    PRODUCTS WHICH WERE CONSIDERED BUT WHOSE MOLE FRACTIONS
    WERE LESS THAN 5.000000E-06 FOR ALL ASSIGNED CONDITIONS

 *C              *CH             CH2             CH3             CH2OH          
 CH3O            CH4             CH3OH           CH3OOH          COOH           
 *C2             C2H             C2H2,acetylene  C2H2,vinylidene CH2CO,ketene   
 O(CH)2O         HO(CO)2OH       C2H3,vinyl      CH3CO,acetyl    C2H4           
 C2H4O,ethylen-o CH3CHO,ethanal  CH3COOH         OHCH2COOH       C2H5           
 C2H6            C2H5OH          CH3OCH3         CH3O2CH3        C2O            
 *C3             C3H3,1-propynl  C3H3,2-propynl  C3H4,allene     C3H4,propyne   
 C3H4,cyclo-     C3H5,allyl      C3H6,propylene  C3H6,cyclo-     C3H6O,propylox 
 C3H6O,acetone   C3H6O,propanal  C3H7,n-propyl   C3H7,i-propyl   C3H8           
 C3H8O,1propanol C3H8O,2propanol C3O2            *C4             C4H2,butadiyne 
 C4H4,1,3-cyclo- C4H6,butadiene  C4H6,1butyne    C4H6,2butyne    C4H6,cyclo-    
 C4H8,1-butene   C4H8,cis2-buten C4H8,tr2-butene C4H8,isobutene  C4H8,cyclo-    
 (CH3COOH)2      C4H9,n-butyl    C4H9,i-butyl    C4H9,s-butyl    C4H9,t-butyl   
 C4H10,n-butane  C4H10,isobutane *C5             C5H6,1,3cyclo-  C5H8,cyclo-    
 C5H10,1-pentene C5H10,cyclo-    C5H11,pentyl    C5H11,t-pentyl  C5H12,n-pentane
 C5H12,i-pentane CH3C(CH3)2CH3   C6H2            C6H5,phenyl     C6H5O,phenoxy  
 C6H6            C6H5OH,phenol   C6H10,cyclo-    C6H12,1-hexene  C6H12,cyclo-   
 C6H13,n-hexyl   C6H14,n-hexane  C7H7,benzyl     C7H8            C7H8O,cresol-mx
 C7H14,1-heptene C7H15,n-heptyl  C7H16,n-heptane C7H16,2-methylh C8H8,styrene   
 C8H10,ethylbenz C8H16,1-octene  C8H17,n-octyl   C8H18,n-octane  C8H18,isooctane
 C9H19,n-nonyl   C10H8,naphthale C10H21,n-decyl  C12H9,o-bipheny C12H10,biphenyl
 HCO             HCCO            HO2             HCHO,formaldehy HCOOH          
 H2O2            (HCOOH)2        O3              C(gr)           H2O(cr)        
 H2O(L)         

 NOTE. WEIGHT FRACTION OF FUEL IN TOTAL FUELS AND OF OXIDANT IN TOTAL OXIDANTS






 POINT ITN      T            C           H           O 
   1    1    2718.123     -14.337      -9.720     -17.849
 Pinf/Pt = 1.756353
   2    4    2500.610     -14.199      -9.844     -18.688
 Pinf/Pt = 1.763983
   2    2    2498.947     -14.198      -9.845     -18.696
 Pinf/Pt = 1.764037
   2    1    2498.935     -14.198      -9.845     -18.696
   3    4    1666.655     -12.461     -10.304     -24.263





              THEORETICAL ROCKET PERFORMANCE ASSUMING EQUILIBRIUM

           COMPOSITION DURING EXPANSION FROM INFINITE AREA COMBUSTOR

 Pin =   290.1 PSIA
 CASE =                

             REACTANT                    WT FRACTION      ENERGY      TEMP
                                          (SEE NOTE)     KJ/KG-MOL      K  
 FUEL        C2H5OH(L)                    0.7500000   -277526.835    298.000
 FUEL        H2O(L)                       0.2500000   -285841.390    298.000
 OXIDANT     O2                           1.0000000         0.000      0.000

 O/F=    1.00000  %FUEL= 50.000000  R,EQ.RATIO= 1.379652  PHI,EQ.RATIO= 1.562833

                 CHAMBER   THROAT     EXIT
 Pinf/P            1.0000   1.7640   19.643
 P, BAR            20.000   11.338   1.0182
 T, K             2718.12  2498.94  1666.66
 RHO, KG/CU M    1.8476 0 1.1424 0 1.5423-1
 H, KJ/KG        -4242.41 -4831.13 -6803.08
 U, KJ/KG        -5324.92 -5823.53 -7463.25
 G, KJ/KG        -37740.9 -35628.3 -27343.1
 S, KJ/(KG)(K)    12.3241  12.3241  12.3241

 M, (1/n)          20.877   20.937   20.991
 (dLV/dLP)t      -1.00284 -1.00134 -1.00001
 (dLV/dLT)p        1.0649   1.0327   1.0004
 Cp, KJ/(KG)(K)    2.9741   2.6721   2.2444
 GAMMAs            1.1751   1.1865   1.2145
 SON VEL,M/SEC     1127.9   1085.1    895.4
 MACH NUMBER        0.000    1.000    2.527

 PERFORMANCE PARAMETERS

 Ae/At                      1.0000   3.5518
 CSTAR, M/SEC               1613.3   1613.3
 CF                         0.6726   1.4027
 Ivac, M/SEC                1999.7   2554.8
 Isp, M/SEC                 1085.1   2263.0


 MOLE FRACTIONS

 *CO              0.22372  0.21977  0.18896
 *CO2             0.11616  0.12108  0.15277
 *H               0.00517  0.00287  0.00005
 *H2              0.14390  0.14826  0.18023
 H2O              0.50561  0.50573  0.47799
 *O               0.00011  0.00003  0.00000
 *OH              0.00517  0.00223  0.00001
 *O2              0.00015  0.00004  0.00000

  * THERMODYNAMIC PROPERTIES FITTED TO 20000.K

    PRODUCTS WHICH WERE CONSIDERED BUT WHOSE MOLE FRACTIONS
    WERE LESS THAN 5.000000E-06 FOR ALL ASSIGNED CONDITIONS

 *C              *CH             CH2             CH3             CH2OH          
 CH3O            CH4             CH3OH           CH3OOH          COOH           
 *C2             C2H             C2H2,acetylene  C2H2,vinylidene CH2CO,ketene   
 O(CH)2O         HO(CO)2OH       C2H3,vinyl      CH3CO,acetyl    C2H4           
 C2H4O,ethylen-o CH3CHO,ethanal  CH3COOH         OHCH2COOH       C2H5           
 C2H6            C2H5OH          CH3OCH3         CH3O2CH3        C2O            
 *C3             C3H3,1-propynl  C3H3,2-propynl  C3H4,allene     C3H4,propyne   
 C3H4,cyclo-     C3H5,allyl      C3H6,propylene  C3H6,cyclo-     C3H6O,propylox 
 C3H6O,acetone   C3H6O,propanal  C3H7,n-propyl   C3H7,i-propyl   C3H8           
 C3H8O,1propanol C3H8O,2propanol C3O2            *C4             C4H2,butadiyne 
 C4H4,1,3-cyclo- C4H6,butadiene  C4H6,1butyne    C4H6,2butyne    C4H6,cyclo-    
 C4H8,1-butene   C4H8,cis2-buten C4H8,tr2-butene C4H8,isobutene  C4H8,cyclo-    
 (CH3COOH)2      C4H9,n-butyl    C4H9,i-butyl    C4H9,s-butyl    C4H9,t-butyl   
 C4H10,n-butane  C4H10,isobutane *C5             C5H6,1,3cyclo-  C5H8,cyclo-    
 C5H10,1-pentene C5H10,cyclo-    C5H11,pentyl    C5H11,t-pentyl  C5H12,n-pentane
 C5H12,i-pentane CH3C(CH3)2CH3   C6H2            C6H5,phenyl     C6H5O,phenoxy  
 C6H6            C6H5OH,phenol   C6H10,cyclo-    C6H12,1-hexene  C6H12,cyclo-   
 C6H13,n-hexyl   C6H14,n-hexane  C7H7,benzyl     C7H8            C7H8O,cresol-mx
 C7H14,1-heptene C7H15,n-heptyl  C7H16,n-heptane C7H16,2-methylh C8H8,styrene   
 C8H10,ethylbenz C8H16,1-octene  C8H17,n-octyl   C8H18,n-octane  C8H18,isooctane
 C9H19,n-nonyl   C10H8,naphthale C10H21,n-decyl  C12H9,o-bipheny C12H10,biphenyl
 HCO             HCCO            HO2             HCHO,formaldehy HCOOH          
 H2O2            (HCOOH)2        O3              C(gr)           H2O(cr)        
 H2O(L)         

 NOTE. WEIGHT FRACTION OF FUEL IN TOTAL FUELS AND OF OXIDANT IN TOTAL OXIDANTS





           THEORETICAL ROCKET PERFORMANCE ASSUMING FROZEN COMPOSITION

 Pin =   290.1 PSIA
 CASE =                

             REACTANT                    WT FRACTION      ENERGY      TEMP
                                          (SEE NOTE)     KJ/KG-MOL      K  
 FUEL        C2H5OH(L)                    0.7500000   -277526.835    298.000
 FUEL        H2O(L)                       0.2500000   -285841.390    298.000
 OXIDANT     O2                           1.0000000         0.000      0.000

 O/F=    1.00000  %FUEL= 50.000000  R,EQ.RATIO= 1.379652  PHI,EQ.RATIO= 1.562833

                 CHAMBER   THROAT     EXIT
 Pinf/P            1.0000   1.7763   19.643
 P, BAR            20.000   11.259   1.0182
 T, K             2718.12  2464.70  1602.41
 RHO, KG/CU M    1.8476 0 1.1470 0 1.5955-1
 H, KJ/KG        -4242.41 -4834.98 -6757.91
 U, KJ/KG        -5324.92 -5816.56 -7396.08
 G, KJ/KG        -37740.9 -35210.2 -26506.2
 S, KJ/(KG)(K)    12.3241  12.3241  12.3241

 M, (1/n)          20.877   20.877   20.877
 Cp, KJ/(KG)(K)    2.3565   2.3189   2.1186
 GAMMAs            1.2034   1.2074   1.2315
 SON VEL,M/SEC     1141.3   1088.6    886.5
 MACH NUMBER        0.000    1.000    2.530

 PERFORMANCE PARAMETERS

 Ae/At                     1.00000   3.4894
 CSTAR, M/SEC               1601.6   1601.6
 CF                         0.6797   1.4004
 Ivac, M/SEC                1990.3   2527.5
 Isp, M/SEC                 1088.6   2243.0

 MOLE FRACTIONS

 *CO             0.22372   *CO2            0.11616   *H              0.00517
 *H2             0.14390   H2O             0.50561   *O              0.00011
 *OH             0.00517   *O2             0.00015

  * THERMODYNAMIC PROPERTIES FITTED TO 20000.K

    PRODUCTS WHICH WERE CONSIDERED BUT WHOSE MOLE FRACTIONS
    WERE LESS THAN 5.000000E-06 FOR ALL ASSIGNED CONDITIONS

 *C              *CH             CH2             CH3             CH2OH          
 CH3O            CH4             CH3OH           CH3OOH          COOH           
 *C2             C2H             C2H2,acetylene  C2H2,vinylidene CH2CO,ketene   
 O(CH)2O         HO(CO)2OH       C2H3,vinyl      CH3CO,acetyl    C2H4           
 C2H4O,ethylen-o CH3CHO,ethanal  CH3COOH         OHCH2COOH       C2H5           
 C2H6            C2H5OH          CH3OCH3         CH3O2CH3        C2O            
 *C3             C3H3,1-propynl  C3H3,2-propynl  C3H4,allene     C3H4,propyne   
 C3H4,cyclo-     C3H5,allyl      C3H6,propylene  C3H6,cyclo-     C3H6O,propylox 
 C3H6O,acetone   C3H6O,propanal  C3H7,n-propyl   C3H7,i-propyl   C3H8           
 C3H8O,1propanol C3H8O,2propanol C3O2            *C4             C4H2,butadiyne 
 C4H4,1,3-cyclo- C4H6,butadiene  C4H6,1butyne    C4H6,2butyne    C4H6,cyclo-    
 C4H8,1-butene   C4H8,cis2-buten C4H8,tr2-butene C4H8,isobutene  C4H8,cyclo-    
 (CH3COOH)2      C4H9,n-butyl    C4H9,i-butyl    C4H9,s-butyl    C4H9,t-butyl   
 C4H10,n-butane  C4H10,isobutane *C5             C5H6,1,3cyclo-  C5H8,cyclo-    
 C5H10,1-pentene C5H10,cyclo-    C5H11,pentyl    C5H11,t-pentyl  C5H12,n-pentane
 C5H12,i-pentane CH3C(CH3)2CH3   C6H2            C6H5,phenyl     C6H5O,phenoxy  
 C6H6            C6H5OH,phenol   C6H10,cyclo-    C6H12,1-hexene  C6H12,cyclo-   
 C6H13,n-hexyl   C6H14,n-hexane  C7H7,benzyl     C7H8            C7H8O,cresol-mx
 C7H14,1-heptene C7H15,n-heptyl  C7H16,n-heptane C7H16,2-methylh C8H8,styrene   
 C8H10,ethylbenz C8H16,1-octene  C8H17,n-octyl   C8H18,n-octane  C8H18,isooctane
 C9H19,n-nonyl   C10H8,naphthale C10H21,n-decyl  C12H9,o-bipheny C12H10,biphenyl
 HCO             HCCO            HO2             HCHO,formaldehy HCOOH          
 H2O2            (HCOOH)2        O3              C(gr)           H2O(cr)        
 H2O(L)         

 NOTE. WEIGHT FRACTION OF FUEL IN TOTAL FUELS AND OF OXIDANT IN TOTAL OXIDANTS






 O/F =   2.000000

                       EFFECTIVE FUEL     EFFECTIVE OXIDANT        MIXTURE
 ENTHALPY                  h(2)/R              h(1)/R               h0/R
 (KG-MOL)(K)/KG       -0.10204839E+04      0.00000000E+00     -0.34016131E+03

 KG-FORM.WT./KG             bi(2)               bi(1)               b0i
  *C                   0.32560252E-01      0.00000000E+00      0.10853417E-01
  *H                   0.12543497E+00      0.00000000E+00      0.41811658E-01
  *O                   0.30157235E-01      0.62502344E-01      0.51720641E-01

 POINT ITN      T            C           H           O 
   1    8    3109.179     -18.618     -10.981     -14.714
 Pinf/Pt = 1.722807
   2    3    2967.809     -19.171     -11.248     -14.900
 Pinf/Pt = 1.721629
   2    2    2967.982     -19.170     -11.248     -14.900
   3    5    2387.777     -22.322     -12.655     -15.731





              THEORETICAL ROCKET PERFORMANCE ASSUMING EQUILIBRIUM

           COMPOSITION DURING EXPANSION FROM INFINITE AREA COMBUSTOR

 Pin =   290.1 PSIA
 CASE =                

             REACTANT                    WT FRACTION      ENERGY      TEMP
                                          (SEE NOTE)     KJ/KG-MOL      K  
 FUEL        C2H5OH(L)                    0.7500000   -277526.835    298.000
 FUEL        H2O(L)                       0.2500000   -285841.390    298.000
 OXIDANT     O2                           1.0000000         0.000      0.000

 O/F=    2.00000  %FUEL= 33.333333  R,EQ.RATIO= 0.823901  PHI,EQ.RATIO= 0.781417

                 CHAMBER   THROAT     EXIT
 Pinf/P            1.0000   1.7216   19.643
 P, BAR            20.000   11.617   1.0182
 T, K             3109.18  2967.98  2387.78
 RHO, KG/CU M    1.9827 0 1.2204 0 1.3867-1
 H, KJ/KG        -2828.27 -3360.67 -5403.71
 U, KJ/KG        -3836.98 -4312.59 -6137.97
 G, KJ/KG        -36766.3 -35757.4 -31467.3
 S, KJ/(KG)(K)    10.9154  10.9154  10.9154

 M, (1/n)          25.628   25.924   27.039
 (dLV/dLP)t      -1.02743 -1.02357 -1.00758
 (dLV/dLT)p        1.5718   1.5163   1.2102
 Cp, KJ/(KG)(K)    5.9449   5.6917   3.7793
 GAMMAs            1.1203   1.1186   1.1256
 SON VEL,M/SEC     1063.0   1031.9    909.1
 MACH NUMBER        0.000    1.000    2.496

 PERFORMANCE PARAMETERS

 Ae/At                      1.0000   4.0013
 CSTAR, M/SEC               1588.2   1588.2
 CF                         0.6497   1.4290
 Ivac, M/SEC                1954.4   2593.1
 Isp, M/SEC                 1031.9   2269.6


 MOLE FRACTIONS

 *CO              0.06335  0.05368  0.01529
 *CO2             0.21480  0.22768  0.27817
 *H               0.00667  0.00530  0.00107
 HO2              0.00018  0.00012  0.00002
 *H2              0.01859  0.01589  0.00513
 H2O              0.48026  0.49441  0.54818
 H2O2             0.00002  0.00001  0.00000
 *O               0.01338  0.01088  0.00286
 *OH              0.06698  0.05786  0.02282
 *O2              0.13578  0.13416  0.12647

  * THERMODYNAMIC PROPERTIES FITTED TO 20000.K

    PRODUCTS WHICH WERE CONSIDERED BUT WHOSE MOLE FRACTIONS
    WERE LESS THAN 5.000000E-06 FOR ALL ASSIGNED CONDITIONS

 *C              *CH             CH2             CH3             CH2OH          
 CH3O            CH4             CH3OH           CH3OOH          COOH           
 *C2             C2H             C2H2,acetylene  C2H2,vinylidene CH2CO,ketene   
 O(CH)2O         HO(CO)2OH       C2H3,vinyl      CH3CO,acetyl    C2H4           
 C2H4O,ethylen-o CH3CHO,ethanal  CH3COOH         OHCH2COOH       C2H5           
 C2H6            C2H5OH          CH3OCH3         CH3O2CH3        C2O            
 *C3             C3H3,1-propynl  C3H3,2-propynl  C3H4,allene     C3H4,propyne   
 C3H4,cyclo-     C3H5,allyl      C3H6,propylene  C3H6,cyclo-     C3H6O,propylox 
 C3H6O,acetone   C3H6O,propanal  C3H7,n-propyl   C3H7,i-propyl   C3H8           
 C3H8O,1propanol C3H8O,2propanol C3O2            *C4             C4H2,butadiyne 
 C4H4,1,3-cyclo- C4H6,butadiene  C4H6,1butyne    C4H6,2butyne    C4H6,cyclo-    
 C4H8,1-butene   C4H8,cis2-buten C4H8,tr2-butene C4H8,isobutene  C4H8,cyclo-    
 (CH3COOH)2      C4H9,n-butyl    C4H9,i-butyl    C4H9,s-butyl    C4H9,t-butyl   
 C4H10,n-butane  C4H10,isobutane *C5             C5H6,1,3cyclo-  C5H8,cyclo-    
 C5H10,1-pentene C5H10,cyclo-    C5H11,pentyl    C5H11,t-pentyl  C5H12,n-pentane
 C5H12,i-pentane CH3C(CH3)2CH3   C6H2            C6H5,phenyl     C6H5O,phenoxy  
 C6H6            C6H5OH,phenol   C6H10,cyclo-    C6H12,1-hexene  C6H12,cyclo-   
 C6H13,n-hexyl   C6H14,n-hexane  C7H7,benzyl     C7H8            C7H8O,cresol-mx
 C7H14,1-heptene C7H15,n-heptyl  C7H16,n-heptane C7H16,2-methylh C8H8,styrene   
 C8H10,ethylbenz C8H16,1-octene  C8H17,n-octyl   C8H18,n-octane  C8H18,isooctane
 C9H19,n-nonyl   C10H8,naphthale C10H21,n-decyl  C12H9,o-bipheny C12H10,biphenyl
 HCO             HCCO            HCHO,formaldehy HCOOH           (HCOOH)2       
 O3              C(gr)           H2O(cr)         H2O(L)         

 NOTE. WEIGHT FRACTION OF FUEL IN TOTAL FUELS AND OF OXIDANT IN TOTAL OXIDANTS





           THEORETICAL ROCKET PERFORMANCE ASSUMING FROZEN COMPOSITION

 Pin =   290.1 PSIA
 CASE =                

             REACTANT                    WT FRACTION      ENERGY      TEMP
                                          (SEE NOTE)     KJ/KG-MOL      K  
 FUEL        C2H5OH(L)                    0.7500000   -277526.835    298.000
 FUEL        H2O(L)                       0.2500000   -285841.390    298.000
 OXIDANT     O2                           1.0000000         0.000      0.000

 O/F=    2.00000  %FUEL= 33.333333  R,EQ.RATIO= 0.823901  PHI,EQ.RATIO= 0.781417

                 CHAMBER   THROAT     EXIT
 Pinf/P            1.0000   1.7668   19.643
 P, BAR            20.000   11.320   1.0182
 T, K             3109.18  2838.48  1901.24
 RHO, KG/CU M    1.9827 0 1.2292 0 1.6507-1
 H, KJ/KG        -2828.27 -3377.10 -5208.75
 U, KJ/KG        -3836.98 -4297.99 -5825.56
 G, KJ/KG        -36766.3 -34360.3 -25961.6
 S, KJ/(KG)(K)    10.9154  10.9154  10.9154

 M, (1/n)          25.628   25.628   25.628
 Cp, KJ/(KG)(K)    2.0398   2.0145   1.8785
 GAMMAs            1.1891   1.1920   1.2088
 SON VEL,M/SEC     1095.2   1047.7    863.5
 MACH NUMBER        0.000    1.000    2.527

 PERFORMANCE PARAMETERS

 Ae/At                      1.0000   3.5756
 CSTAR, M/SEC               1553.0   1553.0
 CF                         0.6746   1.4050
 Ivac, M/SEC                1926.7   2464.6
 Isp, M/SEC                 1047.7   2182.0

 MOLE FRACTIONS

 *CO             0.06335   *CO2            0.21480   *H              0.00667
 HO2             0.00018   *H2             0.01859   H2O             0.48026
 H2O2            0.00002   *O              0.01338   *OH             0.06698
 *O2             0.13578

  * THERMODYNAMIC PROPERTIES FITTED TO 20000.K

    PRODUCTS WHICH WERE CONSIDERED BUT WHOSE MOLE FRACTIONS
    WERE LESS THAN 5.000000E-06 FOR ALL ASSIGNED CONDITIONS

 *C              *CH             CH2             CH3             CH2OH          
 CH3O            CH4             CH3OH           CH3OOH          COOH           
 *C2             C2H             C2H2,acetylene  C2H2,vinylidene CH2CO,ketene   
 O(CH)2O         HO(CO)2OH       C2H3,vinyl      CH3CO,acetyl    C2H4           
 C2H4O,ethylen-o CH3CHO,ethanal  CH3COOH         OHCH2COOH       C2H5           
 C2H6            C2H5OH          CH3OCH3         CH3O2CH3        C2O            
 *C3             C3H3,1-propynl  C3H3,2-propynl  C3H4,allene     C3H4,propyne   
 C3H4,cyclo-     C3H5,allyl      C3H6,propylene  C3H6,cyclo-     C3H6O,propylox 
 C3H6O,acetone   C3H6O,propanal  C3H7,n-propyl   C3H7,i-propyl   C3H8           
 C3H8O,1propanol C3H8O,2propanol C3O2            *C4             C4H2,butadiyne 
 C4H4,1,3-cyclo- C4H6,butadiene  C4H6,1butyne    C4H6,2butyne    C4H6,cyclo-    
 C4H8,1-butene   C4H8,cis2-buten C4H8,tr2-butene C4H8,isobutene  C4H8,cyclo-    
 (CH3COOH)2      C4H9,n-butyl    C4H9,i-butyl    C4H9,s-butyl    C4H9,t-butyl   
 C4H10,n-butane  C4H10,isobutane *C5             C5H6,1,3cyclo-  C5H8,cyclo-    
 C5H10,1-pentene C5H10,cyclo-    C5H11,pentyl    C5H11,t-pentyl  C5H12,n-pentane
 C5H12,i-pentane CH3C(CH3)2CH3   C6H2            C6H5,phenyl     C6H5O,phenoxy  
 C6H6            C6H5OH,phenol   C6H10,cyclo-    C6H12,1-hexene  C6H12,cyclo-   
 C6H13,n-hexyl   C6H14,n-hexane  C7H7,benzyl     C7H8            C7H8O,cresol-mx
 C7H14,1-heptene C7H15,n-heptyl  C7H16,n-heptane C7H16,2-methylh C8H8,styrene   
 C8H10,ethylbenz C8H16,1-octene  C8H17,n-octyl   C8H18,n-octane  C8H18,isooctane
 C9H19,n-nonyl   C10H8,naphthale C10H21,n-decyl  C12H9,o-bipheny C12H10,biphenyl
 HCO             HCCO            HCHO,formaldehy HCOOH           (HCOOH)2       
 O3              C(gr)           H2O(cr)         H2O(L)         

 NOTE. WEIGHT FRACTION OF FUEL IN TOTAL FUELS AND OF OXIDANT IN TOTAL OXIDANTS






 POINT ITN      T            C           H           O 
   1    1    3109.179     -18.618     -10.981     -14.714
 Pinf/Pt = 1.722807
   2    3    2967.809     -19.171     -11.248     -14.900
 Pinf/Pt = 1.721629
   2    2    2967.982     -19.170     -11.248     -14.900
   3    5    2387.777     -22.322     -12.655     -15.731





              THEORETICAL ROCKET PERFORMANCE ASSUMING EQUILIBRIUM

           COMPOSITION DURING EXPANSION FROM INFINITE AREA COMBUSTOR

 Pin =   290.1 PSIA
 CASE =                

             REACTANT                    WT FRACTION      ENERGY      TEMP
                                          (SEE NOTE)     KJ/KG-MOL      K  
 FUEL        C2H5OH(L)                    0.7500000   -277526.835    298.000
 FUEL        H2O(L)                       0.2500000   -285841.390    298.000
 OXIDANT     O2                           1.0000000         0.000      0.000

 O/F=    2.00000  %FUEL= 33.333333  R,EQ.RATIO= 0.823901  PHI,EQ.RATIO= 0.781417

                 CHAMBER   THROAT     EXIT
 Pinf/P            1.0000   1.7216   19.643
 P, BAR            20.000   11.617   1.0182
 T, K             3109.18  2967.98  2387.78
 RHO, KG/CU M    1.9827 0 1.2204 0 1.3867-1
 H, KJ/KG        -2828.27 -3360.67 -5403.71
 U, KJ/KG        -3836.98 -4312.59 -6137.97
 G, KJ/KG        -36766.3 -35757.4 -31467.3
 S, KJ/(KG)(K)    10.9154  10.9154  10.9154

 M, (1/n)          25.628   25.924   27.039
 (dLV/dLP)t      -1.02743 -1.02357 -1.00758
 (dLV/dLT)p        1.5718   1.5163   1.2102
 Cp, KJ/(KG)(K)    5.9449   5.6917   3.7793
 GAMMAs            1.1203   1.1186   1.1256
 SON VEL,M/SEC     1063.0   1031.9    909.1
 MACH NUMBER        0.000    1.000    2.496

 PERFORMANCE PARAMETERS

 Ae/At                     1.00000   4.0013
 CSTAR, M/SEC               1588.2   1588.2
 CF                         0.6497   1.4290
 Ivac, M/SEC                1954.4   2593.1
 Isp, M/SEC                 1031.9   2269.6


 MOLE FRACTIONS

 *CO              0.06335  0.05368  0.01529
 *CO2             0.21480  0.22768  0.27817
 *H               0.00667  0.00530  0.00107
 HO2              0.00018  0.00012  0.00002
 *H2              0.01859  0.01589  0.00513
 H2O              0.48026  0.49441  0.54818
 H2O2             0.00002  0.00001  0.00000
 *O               0.01338  0.01088  0.00286
 *OH              0.06698  0.05786  0.02282
 *O2              0.13578  0.13416  0.12647

  * THERMODYNAMIC PROPERTIES FITTED TO 20000.K

    PRODUCTS WHICH WERE CONSIDERED BUT WHOSE MOLE FRACTIONS
    WERE LESS THAN 5.000000E-06 FOR ALL ASSIGNED CONDITIONS

 *C              *CH             CH2             CH3             CH2OH          
 CH3O            CH4             CH3OH           CH3OOH          COOH           
 *C2             C2H             C2H2,acetylene  C2H2,vinylidene CH2CO,ketene   
 O(CH)2O         HO(CO)2OH       C2H3,vinyl      CH3CO,acetyl    C2H4           
 C2H4O,ethylen-o CH3CHO,ethanal  CH3COOH         OHCH2COOH       C2H5           
 C2H6            C2H5OH          CH3OCH3         CH3O2CH3        C2O            
 *C3             C3H3,1-propynl  C3H3,2-propynl  C3H4,allene     C3H4,propyne   
 C3H4,cyclo-     C3H5,allyl      C3H6,propylene  C3H6,cyclo-     C3H6O,propylox 
 C3H6O,acetone   C3H6O,propanal  C3H7,n-propyl   C3H7,i-propyl   C3H8           
 C3H8O,1propanol C3H8O,2propanol C3O2            *C4             C4H2,butadiyne 
 C4H4,1,3-cyclo- C4H6,butadiene  C4H6,1butyne    C4H6,2butyne    C4H6,cyclo-    
 C4H8,1-butene   C4H8,cis2-buten C4H8,tr2-butene C4H8,isobutene  C4H8,cyclo-    
 (CH3COOH)2      C4H9,n-butyl    C4H9,i-butyl    C4H9,s-butyl    C4H9,t-butyl   
 C4H10,n-butane  C4H10,isobutane *C5             C5H6,1,3cyclo-  C5H8,cyclo-    
 C5H10,1-pentene C5H10,cyclo-    C5H11,pentyl    C5H11,t-pentyl  C5H12,n-pentane
 C5H12,i-pentane CH3C(CH3)2CH3   C6H2            C6H5,phenyl     C6H5O,phenoxy  
 C6H6            C6H5OH,phenol   C6H10,cyclo-    C6H12,1-hexene  C6H12,cyclo-   
 C6H13,n-hexyl   C6H14,n-hexane  C7H7,benzyl     C7H8            C7H8O,cresol-mx
 C7H14,1-heptene C7H15,n-heptyl  C7H16,n-heptane C7H16,2-methylh C8H8,styrene   
 C8H10,ethylbenz C8H16,1-octene  C8H17,n-octyl   C8H18,n-octane  C8H18,isooctane
 C9H19,n-nonyl   C10H8,naphthale C10H21,n-decyl  C12H9,o-bipheny C12H10,biphenyl
 HCO             HCCO            HCHO,formaldehy HCOOH           (HCOOH)2       
 O3              C(gr)           H2O(cr)         H2O(L)         

 NOTE. WEIGHT FRACTION OF FUEL IN TOTAL FUELS AND OF OXIDANT IN TOTAL OXIDANTS





           THEORETICAL ROCKET PERFORMANCE ASSUMING FROZEN COMPOSITION

 Pin =   290.1 PSIA
 CASE =                

             REACTANT                    WT FRACTION      ENERGY      TEMP
                                          (SEE NOTE)     KJ/KG-MOL      K  
 FUEL        C2H5OH(L)                    0.7500000   -277526.835    298.000
 FUEL        H2O(L)                       0.2500000   -285841.390    298.000
 OXIDANT     O2                           1.0000000         0.000      0.000

 O/F=    2.00000  %FUEL= 33.333333  R,EQ.RATIO= 0.823901  PHI,EQ.RATIO= 0.781417

                 CHAMBER   THROAT     EXIT
 Pinf/P            1.0000   1.7668   19.643
 P, BAR            20.000   11.320   1.0182
 T, K             3109.18  2838.48  1901.24
 RHO, KG/CU M    1.9827 0 1.2292 0 1.6507-1
 H, KJ/KG        -2828.27 -3377.10 -5208.75
 U, KJ/KG        -3836.98 -4297.99 -5825.56
 G, KJ/KG        -36766.3 -34360.3 -25961.6
 S, KJ/(KG)(K)    10.9154  10.9154  10.9154

 M, (1/n)          25.628   25.628   25.628
 Cp, KJ/(KG)(K)    2.0398   2.0145   1.8785
 GAMMAs            1.1891   1.1920   1.2088
 SON VEL,M/SEC     1095.2   1047.7    863.5
 MACH NUMBER        0.000    1.000    2.527

 PERFORMANCE PARAMETERS

 Ae/At                      1.0000   3.5756
 CSTAR, M/SEC               1553.0   1553.0
 CF                         0.6746   1.4050
 Ivac, M/SEC                1926.7   2464.6
 Isp, M/SEC                 1047.7   2182.0

 MOLE FRACTIONS

 *CO             0.06335   *CO2            0.21480   *H              0.00667
 HO2             0.00018   *H2             0.01859   H2O             0.48026
 H2O2            0.00002   *O              0.01338   *OH             0.06698
 *O2             0.13578

  * THERMODYNAMIC PROPERTIES FITTED TO 20000.K

    PRODUCTS WHICH WERE CONSIDERED BUT WHOSE MOLE FRACTIONS
    WERE LESS THAN 5.000000E-06 FOR ALL ASSIGNED CONDITIONS

 *C              *CH             CH2             CH3             CH2OH          
 CH3O            CH4             CH3OH           CH3OOH          COOH           
 *C2             C2H             C2H2,acetylene  C2H2,vinylidene CH2CO,ketene   
 O(CH)2O         HO(CO)2OH       C2H3,vinyl      CH3CO,acetyl    C2H4           
 C2H4O,ethylen-o CH3CHO,ethanal  CH3COOH         OHCH2COOH       C2H5           
 C2H6            C2H5OH          CH3OCH3         CH3O2CH3        C2O            
 *C3             C3H3,1-propynl  C3H3,2-propynl  C3H4,allene     C3H4,propyne   
 C3H4,cyclo-     C3H5,allyl      C3H6,propylene  C3H6,cyclo-     C3H6O,propylox 
 C3H6O,acetone   C3H6O,propanal  C3H7,n-propyl   C3H7,i-propyl   C3H8           
 C3H8O,1propanol C3H8O,2propanol C3O2            *C4             C4H2,butadiyne 
 C4H4,1,3-cyclo- C4H6,butadiene  C4H6,1butyne    C4H6,2butyne    C4H6,cyclo-    
 C4H8,1-butene   C4H8,cis2-buten C4H8,tr2-butene C4H8,isobutene  C4H8,cyclo-    
 (CH3COOH)2      C4H9,n-butyl    C4H9,i-butyl    C4H9,s-butyl    C4H9,t-butyl   
 C4H10,n-butane  C4H10,isobutane *C5             C5H6,1,3cyclo-  C5H8,cyclo-    
 C5H10,1-pentene C5H10,cyclo-    C5H11,pentyl    C5H11,t-pentyl  C5H12,n-pentane
 C5H12,i-pentane CH3C(CH3)2CH3   C6H2            C6H5,phenyl     C6H5O,phenoxy  
 C6H6            C6H5OH,phenol   C6H10,cyclo-    C6H12,1-hexene  C6H12,cyclo-   
 C6H13,n-hexyl   C6H14,n-hexane  C7H7,benzyl     C7H8            C7H8O,cresol-mx
 C7H14,1-heptene C7H15,n-heptyl  C7H16,n-heptane C7H16,2-methylh C8H8,styrene   
 C8H10,ethylbenz C8H16,1-octene  C8H17,n-octyl   C8H18,n-octane  C8H18,isooctane
 C9H19,n-nonyl   C10H8,naphthale C10H21,n-decyl  C12H9,o-bipheny C12H10,biphenyl
 HCO             HCCO            HCHO,formaldehy HCOOH           (HCOOH)2       
 O3              C(gr)           H2O(cr)         H2O(L)         

 NOTE. WEIGHT FRACTION OF FUEL IN TOTAL FUELS AND OF OXIDANT IN TOTAL OXIDANTS






 O/F =   3.000000

                       EFFECTIVE FUEL     EFFECTIVE OXIDANT        MIXTURE
 ENTHALPY                  h(2)/R              h(1)/R               h0/R
 (KG-MOL)(K)/KG       -0.10204839E+04      0.00000000E+00     -0.25512098E+03

 KG-FORM.WT./KG             bi(2)               bi(1)               b0i
  *C                   0.32560252E-01      0.00000000E+00      0.81400629E-02
  *H                   0.12543497E+00      0.00000000E+00      0.31358743E-01
  *O                   0.30157235E-01      0.62502344E-01      0.54416067E-01

 POINT ITN      T            C           H           O 
   1    5    2921.729     -20.319     -11.475     -14.186
 Pinf/Pt = 1.730784
   2    4    2761.344     -21.109     -11.804     -14.346
 Pinf/Pt = 1.732628
   2    2    2761.035     -21.111     -11.805     -14.347
   3    5    2043.940     -26.453     -13.804     -14.985





              THEORETICAL ROCKET PERFORMANCE ASSUMING EQUILIBRIUM

           COMPOSITION DURING EXPANSION FROM INFINITE AREA COMBUSTOR

 Pin =   290.1 PSIA
 CASE =                

             REACTANT                    WT FRACTION      ENERGY      TEMP
                                          (SEE NOTE)     KJ/KG-MOL      K  
 FUEL        C2H5OH(L)                    0.7500000   -277526.835    298.000
 FUEL        H2O(L)                       0.2500000   -285841.390    298.000
 OXIDANT     O2                           1.0000000         0.000      0.000

 O/F=    3.00000  %FUEL= 25.000000  R,EQ.RATIO= 0.587317  PHI,EQ.RATIO= 0.520944

                 CHAMBER   THROAT     EXIT
 Pinf/P            1.0000   1.7326   19.643
 P, BAR            20.000   11.543   1.0182
 T, K             2921.73  2761.03  2043.94
 RHO, KG/CU M    2.2730 0 1.4002 0 1.7052-1
 H, KJ/KG        -2121.21 -2589.46 -4311.72
 U, KJ/KG        -3001.10 -3413.85 -4908.82
 G, KJ/KG        -31513.2 -30364.9 -24873.3
 S, KJ/(KG)(K)    10.0598  10.0598  10.0598

 M, (1/n)          27.609   27.847   28.462
 (dLV/dLP)t      -1.01294 -1.00952 -1.00083
 (dLV/dLT)p        1.2925   1.2292   1.0286
 Cp, KJ/(KG)(K)    3.8525   3.4910   2.0247
 GAMMAs            1.1333   1.1360   1.1790
 SON VEL,M/SEC      998.6    967.7    839.0
 MACH NUMBER        0.000    1.000    2.495

 PERFORMANCE PARAMETERS

 Ae/At                      1.0000   3.7965
 CSTAR, M/SEC               1476.0   1476.0
 CF                         0.6556   1.4181
 Ivac, M/SEC                1819.6   2378.4
 Isp, M/SEC                  967.7   2093.1


 MOLE FRACTIONS

 *CO              0.02042  0.01443  0.00077
 *CO2             0.20431  0.21224  0.23091
 *H               0.00206  0.00134  0.00004
 HO2              0.00021  0.00014  0.00001
 *H2              0.00554  0.00407  0.00031
 H2O              0.40098  0.41176  0.44261
 H2O2             0.00002  0.00001  0.00000
 *O               0.01061  0.00759  0.00052
 *OH              0.05044  0.04008  0.00663
 *O2              0.30541  0.30834  0.31820

  * THERMODYNAMIC PROPERTIES FITTED TO 20000.K

    PRODUCTS WHICH WERE CONSIDERED BUT WHOSE MOLE FRACTIONS
    WERE LESS THAN 5.000000E-06 FOR ALL ASSIGNED CONDITIONS

 *C              *CH             CH2             CH3             CH2OH          
 CH3O            CH4             CH3OH           CH3OOH          COOH           
 *C2             C2H             C2H2,acetylene  C2H2,vinylidene CH2CO,ketene   
 O(CH)2O         HO(CO)2OH       C2H3,vinyl      CH3CO,acetyl    C2H4           
 C2H4O,ethylen-o CH3CHO,ethanal  CH3COOH         OHCH2COOH       C2H5           
 C2H6            C2H5OH          CH3OCH3         CH3O2CH3        C2O            
 *C3             C3H3,1-propynl  C3H3,2-propynl  C3H4,allene     C3H4,propyne   
 C3H4,cyclo-     C3H5,allyl      C3H6,propylene  C3H6,cyclo-     C3H6O,propylox 
 C3H6O,acetone   C3H6O,propanal  C3H7,n-propyl   C3H7,i-propyl   C3H8           
 C3H8O,1propanol C3H8O,2propanol C3O2            *C4             C4H2,butadiyne 
 C4H4,1,3-cyclo- C4H6,butadiene  C4H6,1butyne    C4H6,2butyne    C4H6,cyclo-    
 C4H8,1-butene   C4H8,cis2-buten C4H8,tr2-butene C4H8,isobutene  C4H8,cyclo-    
 (CH3COOH)2      C4H9,n-butyl    C4H9,i-butyl    C4H9,s-butyl    C4H9,t-butyl   
 C4H10,n-butane  C4H10,isobutane *C5             C5H6,1,3cyclo-  C5H8,cyclo-    
 C5H10,1-pentene C5H10,cyclo-    C5H11,pentyl    C5H11,t-pentyl  C5H12,n-pentane
 C5H12,i-pentane CH3C(CH3)2CH3   C6H2            C6H5,phenyl     C6H5O,phenoxy  
 C6H6            C6H5OH,phenol   C6H10,cyclo-    C6H12,1-hexene  C6H12,cyclo-   
 C6H13,n-hexyl   C6H14,n-hexane  C7H7,benzyl     C7H8            C7H8O,cresol-mx
 C7H14,1-heptene C7H15,n-heptyl  C7H16,n-heptane C7H16,2-methylh C8H8,styrene   
 C8H10,ethylbenz C8H16,1-octene  C8H17,n-octyl   C8H18,n-octane  C8H18,isooctane
 C9H19,n-nonyl   C10H8,naphthale C10H21,n-decyl  C12H9,o-bipheny C12H10,biphenyl
 HCO             HCCO            HCHO,formaldehy HCOOH           (HCOOH)2       
 O3              C(gr)           H2O(cr)         H2O(L)         

 NOTE. WEIGHT FRACTION OF FUEL IN TOTAL FUELS AND OF OXIDANT IN TOTAL OXIDANTS





           THEORETICAL ROCKET PERFORMANCE ASSUMING FROZEN COMPOSITION

 Pin =   290.1 PSIA
 CASE =                

             REACTANT                    WT FRACTION      ENERGY      TEMP
                                          (SEE NOTE)     KJ/KG-MOL      K  
 FUEL        C2H5OH(L)                    0.7500000   -277526.835    298.000
 FUEL        H2O(L)                       0.2500000   -285841.390    298.000
 OXIDANT     O2                           1.0000000         0.000      0.000

 O/F=    3.00000  %FUEL= 25.000000  R,EQ.RATIO= 0.587317  PHI,EQ.RATIO= 0.520944

                 CHAMBER   THROAT     EXIT
 Pinf/P            1.0000   1.7717   19.643
 P, BAR            20.000   11.289   1.0182
 T, K             2921.73  2658.07  1755.55
 RHO, KG/CU M    2.2730 0 1.4102 0 1.9258-1
 H, KJ/KG        -2121.21 -2601.42 -4181.75
 U, KJ/KG        -3001.10 -3401.91 -4710.45
 G, KJ/KG        -31513.2 -29341.0 -21842.3
 S, KJ/(KG)(K)    10.0598  10.0598  10.0598

 M, (1/n)          27.609   27.609   27.609
 Cp, KJ/(KG)(K)    1.8335   1.8084   1.6804
 GAMMAs            1.1965   1.1998   1.2184
 SON VEL,M/SEC     1026.1    980.0    802.6
 MACH NUMBER        0.000    1.000    2.529

 PERFORMANCE PARAMETERS

 Ae/At                      1.0000   3.5351
 CSTAR, M/SEC               1447.1   1447.1
 CF                         0.6772   1.4028
 Ivac, M/SEC                1796.8   2290.5
 Isp, M/SEC                  980.0   2030.0

 MOLE FRACTIONS

 *CO             0.02042   *CO2            0.20431   *H              0.00206
 HO2             0.00021   *H2             0.00554   H2O             0.40098
 H2O2            0.00002   *O              0.01061   *OH             0.05044
 *O2             0.30541

  * THERMODYNAMIC PROPERTIES FITTED TO 20000.K

    PRODUCTS WHICH WERE CONSIDERED BUT WHOSE MOLE FRACTIONS
    WERE LESS THAN 5.000000E-06 FOR ALL ASSIGNED CONDITIONS

 *C              *CH             CH2             CH3             CH2OH          
 CH3O            CH4             CH3OH           CH3OOH          COOH           
 *C2             C2H             C2H2,acetylene  C2H2,vinylidene CH2CO,ketene   
 O(CH)2O         HO(CO)2OH       C2H3,vinyl      CH3CO,acetyl    C2H4           
 C2H4O,ethylen-o CH3CHO,ethanal  CH3COOH         OHCH2COOH       C2H5           
 C2H6            C2H5OH          CH3OCH3         CH3O2CH3        C2O            
 *C3             C3H3,1-propynl  C3H3,2-propynl  C3H4,allene     C3H4,propyne   
 C3H4,cyclo-     C3H5,allyl      C3H6,propylene  C3H6,cyclo-     C3H6O,propylox 
 C3H6O,acetone   C3H6O,propanal  C3H7,n-propyl   C3H7,i-propyl   C3H8           
 C3H8O,1propanol C3H8O,2propanol C3O2            *C4             C4H2,butadiyne 
 C4H4,1,3-cyclo- C4H6,butadiene  C4H6,1butyne    C4H6,2butyne    C4H6,cyclo-    
 C4H8,1-butene   C4H8,cis2-buten C4H8,tr2-butene C4H8,isobutene  C4H8,cyclo-    
 (CH3COOH)2      C4H9,n-butyl    C4H9,i-butyl    C4H9,s-butyl    C4H9,t-butyl   
 C4H10,n-butane  C4H10,isobutane *C5             C5H6,1,3cyclo-  C5H8,cyclo-    
 C5H10,1-pentene C5H10,cyclo-    C5H11,pentyl    C5H11,t-pentyl  C5H12,n-pentane
 C5H12,i-pentane CH3C(CH3)2CH3   C6H2            C6H5,phenyl     C6H5O,phenoxy  
 C6H6            C6H5OH,phenol   C6H10,cyclo-    C6H12,1-hexene  C6H12,cyclo-   
 C6H13,n-hexyl   C6H14,n-hexane  C7H7,benzyl     C7H8            C7H8O,cresol-mx
 C7H14,1-heptene C7H15,n-heptyl  C7H16,n-heptane C7H16,2-methylh C8H8,styrene   
 C8H10,ethylbenz C8H16,1-octene  C8H17,n-octyl   C8H18,n-octane  C8H18,isooctane
 C9H19,n-nonyl   C10H8,naphthale C10H21,n-decyl  C12H9,o-bipheny C12H10,biphenyl
 HCO             HCCO            HCHO,formaldehy HCOOH           (HCOOH)2       
 O3              C(gr)           H2O(cr)         H2O(L)         

 NOTE. WEIGHT FRACTION OF FUEL IN TOTAL FUELS AND OF OXIDANT IN TOTAL OXIDANTS






 POINT ITN      T            C           H           O 
   1    1    2921.729     -20.319     -11.475     -14.186
 Pinf/Pt = 1.730784
   2    4    2761.344     -21.109     -11.804     -14.346
 Pinf/Pt = 1.732628
   2    2    2761.035     -21.111     -11.805     -14.347
   3    5    2043.940     -26.453     -13.804     -14.985





              THEORETICAL ROCKET PERFORMANCE ASSUMING EQUILIBRIUM

           COMPOSITION DURING EXPANSION FROM INFINITE AREA COMBUSTOR

 Pin =   290.1 PSIA
 CASE =                

             REACTANT                    WT FRACTION      ENERGY      TEMP
                                          (SEE NOTE)     KJ/KG-MOL      K  
 FUEL        C2H5OH(L)                    0.7500000   -277526.835    298.000
 FUEL        H2O(L)                       0.2500000   -285841.390    298.000
 OXIDANT     O2                           1.0000000         0.000      0.000

 O/F=    3.00000  %FUEL= 25.000000  R,EQ.RATIO= 0.587317  PHI,EQ.RATIO= 0.520944

                 CHAMBER   THROAT     EXIT
 Pinf/P            1.0000   1.7326   19.643
 P, BAR            20.000   11.543   1.0182
 T, K             2921.73  2761.03  2043.94
 RHO, KG/CU M    2.2730 0 1.4002 0 1.7052-1
 H, KJ/KG        -2121.21 -2589.46 -4311.72
 U, KJ/KG        -3001.10 -3413.85 -4908.82
 G, KJ/KG        -31513.2 -30364.9 -24873.3
 S, KJ/(KG)(K)    10.0598  10.0598  10.0598

 M, (1/n)          27.609   27.847   28.462
 (dLV/dLP)t      -1.01294 -1.00952 -1.00083
 (dLV/dLT)p        1.2925   1.2292   1.0286
 Cp, KJ/(KG)(K)    3.8525   3.4910   2.0247
 GAMMAs            1.1333   1.1360   1.1790
 SON VEL,M/SEC      998.6    967.7    839.0
 MACH NUMBER        0.000    1.000    2.495

 PERFORMANCE PARAMETERS

 Ae/At                      1.0000   3.7965
 CSTAR, M/SEC               1476.0   1476.0
 CF                         0.6556   1.4181
 Ivac, M/SEC                1819.6   2378.4
 Isp, M/SEC                  967.7   2093.1


 MOLE FRACTIONS

 *CO              0.02042  0.01443  0.00077
 *CO2             0.20431  0.21224  0.23091
 *H               0.00206  0.00134  0.00004
 HO2              0.00021  0.00014  0.00001
 *H2              0.00554  0.00407  0.00031
 H2O              0.40098  0.41176  0.44261
 H2O2             0.00002  0.00001  0.00000
 *O               0.01061  0.00759  0.00052
 *OH              0.05044  0.04008  0.00663
 *O2              0.30541  0.30834  0.31820

  * THERMODYNAMIC PROPERTIES FITTED TO 20000.K

    PRODUCTS WHICH WERE CONSIDERED BUT WHOSE MOLE FRACTIONS
    WERE LESS THAN 5.000000E-06 FOR ALL ASSIGNED CONDITIONS

 *C              *CH             CH2             CH3             CH2OH          
 CH3O            CH4             CH3OH           CH3OOH          COOH           
 *C2             C2H             C2H2,acetylene  C2H2,vinylidene CH2CO,ketene   
 O(CH)2O         HO(CO)2OH       C2H3,vinyl      CH3CO,acetyl    C2H4           
 C2H4O,ethylen-o CH3CHO,ethanal  CH3COOH         OHCH2COOH       C2H5           
 C2H6            C2H5OH          CH3OCH3         CH3O2CH3        C2O            
 *C3             C3H3,1-propynl  C3H3,2-propynl  C3H4,allene     C3H4,propyne   
 C3H4,cyclo-     C3H5,allyl      C3H6,propylene  C3H6,cyclo-     C3H6O,propylox 
 C3H6O,acetone   C3H6O,propanal  C3H7,n-propyl   C3H7,i-propyl   C3H8           
 C3H8O,1propanol C3H8O,2propanol C3O2            *C4             C4H2,butadiyne 
 C4H4,1,3-cyclo- C4H6,butadiene  C4H6,1butyne    C4H6,2butyne    C4H6,cyclo-    
 C4H8,1-butene   C4H8,cis2-buten C4H8,tr2-butene C4H8,isobutene  C4H8,cyclo-    
 (CH3COOH)2      C4H9,n-butyl    C4H9,i-butyl    C4H9,s-butyl    C4H9,t-butyl   
 C4H10,n-butane  C4H10,isobutane *C5             C5H6,1,3cyclo-  C5H8,cyclo-    
 C5H10,1-pentene C5H10,cyclo-    C5H11,pentyl    C5H11,t-pentyl  C5H12,n-pentane
 C5H12,i-pentane CH3C(CH3)2CH3   C6H2            C6H5,phenyl     C6H5O,phenoxy  
 C6H6            C6H5OH,phenol   C6H10,cyclo-    C6H12,1-hexene  C6H12,cyclo-   
 C6H13,n-hexyl   C6H14,n-hexane  C7H7,benzyl     C7H8            C7H8O,cresol-mx
 C7H14,1-heptene C7H15,n-heptyl  C7H16,n-heptane C7H16,2-methylh C8H8,styrene   
 C8H10,ethylbenz C8H16,1-octene  C8H17,n-octyl   C8H18,n-octane  C8H18,isooctane
 C9H19,n-nonyl   C10H8,naphthale C10H21,n-decyl  C12H9,o-bipheny C12H10,biphenyl
 HCO             HCCO            HCHO,formaldehy HCOOH           (HCOOH)2       
 O3              C(gr)           H2O(cr)         H2O(L)         

 NOTE. WEIGHT FRACTION OF FUEL IN TOTAL FUELS AND OF OXIDANT IN TOTAL OXIDANTS





           THEORETICAL ROCKET PERFORMANCE ASSUMING FROZEN COMPOSITION

 Pin =   290.1 PSIA
 CASE =                

             REACTANT                    WT FRACTION      ENERGY      TEMP
                                          (SEE NOTE)     KJ/KG-MOL      K  
 FUEL        C2H5OH(L)                    0.7500000   -277526.835    298.000
 FUEL        H2O(L)                       0.2500000   -285841.390    298.000
 OXIDANT     O2                           1.0000000         0.000      0.000

 O/F=    3.00000  %FUEL= 25.000000  R,EQ.RATIO= 0.587317  PHI,EQ.RATIO= 0.520944

                 CHAMBER   THROAT     EXIT
 Pinf/P            1.0000   1.7717   19.643
 P, BAR            20.000   11.289   1.0182
 T, K             2921.73  2658.07  1755.55
 RHO, KG/CU M    2.2730 0 1.4102 0 1.9258-1
 H, KJ/KG        -2121.21 -2601.42 -4181.75
 U, KJ/KG        -3001.10 -3401.91 -4710.45
 G, KJ/KG        -31513.2 -29341.0 -21842.3
 S, KJ/(KG)(K)    10.0598  10.0598  10.0598

 M, (1/n)          27.609   27.609   27.609
 Cp, KJ/(KG)(K)    1.8335   1.8084   1.6804
 GAMMAs            1.1965   1.1998   1.2184
 SON VEL,M/SEC     1026.1    980.0    802.6
 MACH NUMBER        0.000    1.000    2.529

 PERFORMANCE PARAMETERS

 Ae/At                      1.0000   3.5351
 CSTAR, M/SEC               1447.1   1447.1
 CF                         0.6772   1.4028
 Ivac, M/SEC                1796.8   2290.5
 Isp, M/SEC                  980.0   2030.0

 MOLE FRACTIONS

 *CO             0.02042   *CO2            0.20431   *H              0.00206
 HO2             0.00021   *H2             0.00554   H2O             0.40098
 H2O2            0.00002   *O              0.01061   *OH             0.05044
 *O2             0.30541

  * THERMODYNAMIC PROPERTIES FITTED TO 20000.K

    PRODUCTS WHICH WERE CONSIDERED BUT WHOSE MOLE FRACTIONS
    WERE LESS THAN 5.000000E-06 FOR ALL ASSIGNED CONDITIONS

 *C              *CH             CH2             CH3             CH2OH          
 CH3O            CH4             CH3OH           CH3OOH          COOH           
 *C2             C2H             C2H2,acetylene  C2H2,vinylidene CH2CO,ketene   
 O(CH)2O         HO(CO)2OH       C2H3,vinyl      CH3CO,acetyl    C2H4           
 C2H4O,ethylen-o CH3CHO,ethanal  CH3COOH         OHCH2COOH       C2H5           
 C2H6            C2H5OH          CH3OCH3         CH3O2CH3        C2O            
 *C3             C3H3,1-propynl  C3H3,2-propynl  C3H4,allene     C3H4,propyne   
 C3H4,cyclo-     C3H5,allyl      C3H6,propylene  C3H6,cyclo-     C3H6O,propylox 
 C3H6O,acetone   C3H6O,propanal  C3H7,n-propyl   C3H7,i-propyl   C3H8           
 C3H8O,1propanol C3H8O,2propanol C3O2            *C4             C4H2,butadiyne 
 C4H4,1,3-cyclo- C4H6,butadiene  C4H6,1butyne    C4H6,2butyne    C4H6,cyclo-    
 C4H8,1-butene   C4H8,cis2-buten C4H8,tr2-butene C4H8,isobutene  C4H8,cyclo-    
 (CH3COOH)2      C4H9,n-butyl    C4H9,i-butyl    C4H9,s-butyl    C4H9,t-butyl   
 C4H10,n-butane  C4H10,isobutane *C5             C5H6,1,3cyclo-  C5H8,cyclo-    
 C5H10,1-pentene C5H10,cyclo-    C5H11,pentyl    C5H11,t-pentyl  C5H12,n-pentane
 C5H12,i-pentane CH3C(CH3)2CH3   C6H2            C6H5,phenyl     C6H5O,phenoxy  
 C6H6            C6H5OH,phenol   C6H10,cyclo-    C6H12,1-hexene  C6H12,cyclo-   
 C6H13,n-hexyl   C6H14,n-hexane  C7H7,benzyl     C7H8            C7H8O,cresol-mx
 C7H14,1-heptene C7H15,n-heptyl  C7H16,n-heptane C7H16,2-methylh C8H8,styrene   
 C8H10,ethylbenz C8H16,1-octene  C8H17,n-octyl   C8H18,n-octane  C8H18,isooctane
 C9H19,n-nonyl   C10H8,naphthale C10H21,n-decyl  C12H9,o-bipheny C12H10,biphenyl
 HCO             HCCO            HCHO,formaldehy HCOOH           (HCOOH)2       
 O3              C(gr)           H2O(cr)         H2O(L)         

 NOTE. WEIGHT FRACTION OF FUEL IN TOTAL FUELS AND OF OXIDANT IN TOTAL OXIDANTS



