
 *******************************************************************************

         NASA-GLENN CHEMICAL EQUILIBRIUM PROGRAM CEA2, MAY 21, 2004
                   BY  BONNIE MCBRIDE AND SANFORD GORDON
      REFS: NASA RP-1311, PART I, 1994 AND NASA RP-1311, PART II, 1996

 *******************************************************************************



 problem    o/f=1.6,1.6,
       rocket  equilibrium  frozen  nfz=1
   p,bar=20,
   pi/p=19.643,
 react
   fuel=RP-1 wt=100  t,k=298
   oxid=O2 wt=100
 end

 OPTIONS: TP=F  HP=F  SP=F  TV=F  UV=F  SV=F  DETN=F  SHOCK=F  REFL=F  INCD=F
 RKT=T  FROZ=T  EQL=T  IONS=F  SIUNIT=T  DEBUGF=F  SHKDBG=F  DETDBG=F  TRNSPT=F

 TRACE= 0.00E+00  S/R= 0.000000E+00  H/R= 0.000000E+00  U/R= 0.000000E+00

 Pc,BAR =    20.000000

 Pc/P =    19.6430

 SUBSONIC AREA RATIOS =

 SUPERSONIC AREA RATIOS =

 NFZ=  1  Mdot/Ac= 0.000000E+00  Ac/At= 0.000000E+00

    REACTANT          WT.FRAC   (ENERGY/R),K   TEMP,K  DENSITY
        EXPLODED FORMULA
 F: RP-1             1.000000  -0.297284E+04   298.00  0.0000
          C  1.00000  H  1.95000
 O: O2               1.000000   0.000000E+00     0.00  0.0000
          O  2.00000

  SPECIES BEING CONSIDERED IN THIS SYSTEM
 (CONDENSED PHASE MAY HAVE NAME LISTED SEVERAL TIMES)
  LAST thermo.inp UPDATE:    9/09/04

  g 7/97  *C               tpis79  *CH              g 4/02  CH2            
  g 4/02  CH3              g11/00  CH2OH            g 7/00  CH3O           
  g 8/99  CH4              g 7/00  CH3OH            srd 01  CH3OOH         
  tpis79  *CO              g 9/99  *CO2             tpis91  COOH           
  tpis91  *C2              g 6/01  C2H              g 1/91  C2H2,acetylene 
  g 5/01  C2H2,vinylidene  g 4/02  CH2CO,ketene     g 3/02  O(CH)2O        
  srd 01  HO(CO)2OH        g 7/01  C2H3,vinyl       g 6/96  CH3CO,acetyl   
  g 1/00  C2H4             g 8/88  C2H4O,ethylen-o  g 8/88  CH3CHO,ethanal 
  g 6/00  CH3COOH          srd 01  OHCH2COOH        g 7/00  C2H5           
  g 7/00  C2H6             g 8/88  C2H5OH           g 7/00  CH3OCH3        
  srd 01  CH3O2CH3         g 8/00  C2O              tpis79  *C3            
  n 4/98  C3H3,1-propynl   n 4/98  C3H3,2-propynl   g 2/00  C3H4,allene    
  g 1/00  C3H4,propyne     g 5/90  C3H4,cyclo-      g 3/01  C3H5,allyl     
  g 2/00  C3H6,propylene   g 1/00  C3H6,cyclo-      g 6/01  C3H6O,propylox 
  g 6/97  C3H6O,acetone    g 1/02  C3H6O,propanal   g 7/01  C3H7,n-propyl  
  g 9/85  C3H7,i-propyl    g 2/00  C3H8             g 2/00  C3H8O,1propanol
  g 2/00  C3H8O,2propanol  g 7/88  C3O2             g tpis  *C4            
  g 7/01  C4H2,butadiyne   g 8/00  C4H4,1,3-cyclo-  n10/92  C4H6,butadiene 
  n10/93  C4H6,1butyne     n10/93  C4H6,2butyne     g 8/00  C4H6,cyclo-    
  n 4/88  C4H8,1-butene    n 4/88  C4H8,cis2-buten  n 4/88  C4H8,tr2-butene
  n 4/88  C4H8,isobutene   g 8/00  C4H8,cyclo-      g10/00  (CH3COOH)2     
  n10/84  C4H9,n-butyl     n10/84  C4H9,i-butyl     g 1/93  C4H9,s-butyl   
  g 1/93  C4H9,t-butyl     g12/00  C4H10,n-butane   g 8/00  C4H10,isobutane
  g 8/00  *C5              g 5/90  C5H6,1,3cyclo-   g 1/93  C5H8,cyclo-    
  n 4/87  C5H10,1-pentene  g 2/01  C5H10,cyclo-     n10/84  C5H11,pentyl   
  g 1/93  C5H11,t-pentyl   n10/85  C5H12,n-pentane  n10/85  C5H12,i-pentane
  n10/85  CH3C(CH3)2CH3    g 2/93  C6H2             g11/00  C6H5,phenyl    
  g 8/00  C6H5O,phenoxy    g 8/00  C6H6             g 8/00  C6H5OH,phenol  
  g 1/93  C6H10,cyclo-     n 4/87  C6H12,1-hexene   g 6/90  C6H12,cyclo-   
  n10/83  C6H13,n-hexyl    g 6/01  C6H14,n-hexane   g 7/01  C7H7,benzyl    
  g 1/93  C7H8             g12/00  C7H8O,cresol-mx  n 4/87  C7H14,1-heptene
  n10/83  C7H15,n-heptyl   n10/85  C7H16,n-heptane  n10/85  C7H16,2-methylh
  n 4/89  C8H8,styrene     n10/86  C8H10,ethylbenz  n 4/87  C8H16,1-octene 
  n10/83  C8H17,n-octyl    n 4/85  C8H18,n-octane   n 4/85  C8H18,isooctane
  n10/83  C9H19,n-nonyl    g 3/01  C10H8,naphthale  n10/83  C10H21,n-decyl 
  g 8/00  C12H9,o-bipheny  g 8/00  C12H10,biphenyl  g 6/97  *H             
  g 1/01  HCO              g 6/01  HCCO             g 4/02  HO2            
  tpis78  *H2              g 5/01  HCHO,formaldehy  g 6/01  HCOOH          
  g 8/89  H2O              g 6/99  H2O2             g 6/01  (HCOOH)2       
  g 5/97  *O               g 4/02  *OH              tpis89  *O2            
  g 8/01  O3               n 4/83  C(gr)            n 4/83  C(gr)          
  n 4/83  C(gr)            g11/99  H2O(cr)          g 8/01  H2O(L)         
  g 8/01  H2O(L)         

 O/F =   1.600000

                       EFFECTIVE FUEL     EFFECTIVE OXIDANT        MIXTURE
 ENTHALPY                  h(2)/R              h(1)/R               h0/R
 (KG-MOL)(K)/KG       -0.21270751E+03      0.00000000E+00     -0.81810580E+02

 KG-FORM.WT./KG             bi(2)               bi(1)               b0i
  *C                   0.71550294E-01      0.00000000E+00      0.27519344E-01
  *H                   0.13952307E+00      0.00000000E+00      0.53662720E-01
  *O                   0.00000000E+00      0.62502344E-01      0.38462981E-01

 POINT ITN      T            C           H           O 
   1   20    2784.653     -11.860      -9.361     -19.557
 Pinf/Pt = 1.783462
   2    4    2509.789     -11.567      -9.462     -20.575
 Pinf/Pt = 1.794020
   2    2    2507.028     -11.563      -9.463     -20.587
 Pinf/Pt = 1.794122
   2    1    2507.002     -11.563      -9.463     -20.587
   3    5    1538.803      -8.729      -9.846     -27.549





              THEORETICAL ROCKET PERFORMANCE ASSUMING EQUILIBRIUM

           COMPOSITION DURING EXPANSION FROM INFINITE AREA COMBUSTOR

 Pin =   290.1 PSIA
 CASE =                

             REACTANT                    WT FRACTION      ENERGY      TEMP
                                          (SEE NOTE)     KJ/KG-MOL      K  
 FUEL        RP-1                         1.0000000    -24717.700    298.000
 OXIDANT     O2                           1.0000000         0.000      0.000

 O/F=    1.60000  %FUEL= 38.461538  R,EQ.RATIO= 2.128541  PHI,EQ.RATIO= 2.128541

                 CHAMBER   THROAT     EXIT
 Pinf/P            1.0000   1.7941   19.643
 P, BAR            20.000   11.148   1.0182
 T, K             2784.65  2507.00  1538.80
 RHO, KG/CU M    1.5803 0 9.8153-1 1.4642-1
 H, KJ/KG         -680.21 -1381.70 -3539.36
 U, KJ/KG        -1945.82 -2517.43 -4234.75
 G, KJ/KG        -36604.0 -33723.6 -23390.9
 S, KJ/(KG)(K)    12.9006  12.9006  12.9006

 M, (1/n)          18.294   18.353   18.399
 (dLV/dLP)t      -1.00287 -1.00124 -1.00001
 (dLV/dLT)p        1.0585   1.0279   1.0002
 Cp, KJ/(KG)(K)    2.7849   2.4966   2.1273
 GAMMAs            1.2195   1.2353   1.2698
 SON VEL,M/SEC     1242.3   1184.5    939.7
 MACH NUMBER        0.000    1.000    2.545

 PERFORMANCE PARAMETERS

 Ae/At                      1.0000   3.3205
 CSTAR, M/SEC               1720.3   1720.3
 CF                         0.6885   1.3900
 Ivac, M/SEC                2143.3   2682.1
 Isp, M/SEC                 1184.5   2391.3


 MOLE FRACTIONS

 *CO              0.46885  0.46760  0.44346
 *CO2             0.03458  0.03747  0.06287
 *H               0.00984  0.00445  0.00002
 HCO              0.00001  0.00000  0.00000
 *H2              0.32111  0.32710  0.35518
 H2O              0.16406  0.16287  0.13848
 *O               0.00003  0.00000  0.00000
 *OH              0.00152  0.00051  0.00000
 *O2              0.00001  0.00000  0.00000

  * THERMODYNAMIC PROPERTIES FITTED TO 20000.K

    PRODUCTS WHICH WERE CONSIDERED BUT WHOSE MOLE FRACTIONS
    WERE LESS THAN 5.000000E-06 FOR ALL ASSIGNED CONDITIONS

 *C              *CH             CH2             CH3             CH2OH          
 CH3O            CH4             CH3OH           CH3OOH          COOH           
 *C2             C2H             C2H2,acetylene  C2H2,vinylidene CH2CO,ketene   
 O(CH)2O         HO(CO)2OH       C2H3,vinyl      CH3CO,acetyl    C2H4           
 C2H4O,ethylen-o CH3CHO,ethanal  CH3COOH         OHCH2COOH       C2H5           
 C2H6            C2H5OH          CH3OCH3         CH3O2CH3        C2O            
 *C3             C3H3,1-propynl  C3H3,2-propynl  C3H4,allene     C3H4,propyne   
 C3H4,cyclo-     C3H5,allyl      C3H6,propylene  C3H6,cyclo-     C3H6O,propylox 
 C3H6O,acetone   C3H6O,propanal  C3H7,n-propyl   C3H7,i-propyl   C3H8           
 C3H8O,1propanol C3H8O,2propanol C3O2            *C4             C4H2,butadiyne 
 C4H4,1,3-cyclo- C4H6,butadiene  C4H6,1butyne    C4H6,2butyne    C4H6,cyclo-    
 C4H8,1-butene   C4H8,cis2-buten C4H8,tr2-butene C4H8,isobutene  C4H8,cyclo-    
 (CH3COOH)2      C4H9,n-butyl    C4H9,i-butyl    C4H9,s-butyl    C4H9,t-butyl   
 C4H10,n-butane  C4H10,isobutane *C5             C5H6,1,3cyclo-  C5H8,cyclo-    
 C5H10,1-pentene C5H10,cyclo-    C5H11,pentyl    C5H11,t-pentyl  C5H12,n-pentane
 C5H12,i-pentane CH3C(CH3)2CH3   C6H2            C6H5,phenyl     C6H5O,phenoxy  
 C6H6            C6H5OH,phenol   C6H10,cyclo-    C6H12,1-hexene  C6H12,cyclo-   
 C6H13,n-hexyl   C6H14,n-hexane  C7H7,benzyl     C7H8            C7H8O,cresol-mx
 C7H14,1-heptene C7H15,n-heptyl  C7H16,n-heptane C7H16,2-methylh C8H8,styrene   
 C8H10,ethylbenz C8H16,1-octene  C8H17,n-octyl   C8H18,n-octane  C8H18,isooctane
 C9H19,n-nonyl   C10H8,naphthale C10H21,n-decyl  C12H9,o-bipheny C12H10,biphenyl
 HCCO            HO2             HCHO,formaldehy HCOOH           H2O2           
 (HCOOH)2        O3              C(gr)           H2O(cr)         H2O(L)         

 NOTE. WEIGHT FRACTION OF FUEL IN TOTAL FUELS AND OF OXIDANT IN TOTAL OXIDANTS





           THEORETICAL ROCKET PERFORMANCE ASSUMING FROZEN COMPOSITION

 Pin =   290.1 PSIA
 CASE =                

             REACTANT                    WT FRACTION      ENERGY      TEMP
                                          (SEE NOTE)     KJ/KG-MOL      K  
 FUEL        RP-1                         1.0000000    -24717.700    298.000
 OXIDANT     O2                           1.0000000         0.000      0.000

 O/F=    1.60000  %FUEL= 38.461538  R,EQ.RATIO= 2.128541  PHI,EQ.RATIO= 2.128541

                 CHAMBER   THROAT     EXIT
 Pinf/P            1.0000   1.8096   19.643
 P, BAR            20.000   11.052   1.0182
 T, K             2784.65  2464.63  1472.51
 RHO, KG/CU M    1.5803 0 9.8667-1 1.5214-1
 H, KJ/KG         -680.21 -1386.95 -3482.12
 U, KJ/KG        -1945.82 -2507.11 -4151.36
 G, KJ/KG        -36604.0 -33182.2 -22478.4
 S, KJ/(KG)(K)    12.9006  12.9006  12.9006

 M, (1/n)          18.294   18.294   18.294
 Cp, KJ/(KG)(K)    2.2255   2.1901   2.0112
 GAMMAs            1.2566   1.2619   1.2920
 SON VEL,M/SEC     1261.1   1188.9    929.9
 MACH NUMBER        0.000    1.000    2.546

 PERFORMANCE PARAMETERS

 Ae/At                      1.0000   3.2571
 CSTAR, M/SEC               1705.0   1705.0
 CF                         0.6973   1.3884
 Ivac, M/SEC                2131.1   2649.9
 Isp, M/SEC                 1188.9   2367.2

 MOLE FRACTIONS

 *CO             0.46885   *CO2            0.03458   *H              0.00984
 HCO             0.00001   *H2             0.32111   H2O             0.16406
 *O              0.00003   *OH             0.00152   *O2             0.00001

  * THERMODYNAMIC PROPERTIES FITTED TO 20000.K

    PRODUCTS WHICH WERE CONSIDERED BUT WHOSE MOLE FRACTIONS
    WERE LESS THAN 5.000000E-06 FOR ALL ASSIGNED CONDITIONS

 *C              *CH             CH2             CH3             CH2OH          
 CH3O            CH4             CH3OH           CH3OOH          COOH           
 *C2             C2H             C2H2,acetylene  C2H2,vinylidene CH2CO,ketene   
 O(CH)2O         HO(CO)2OH       C2H3,vinyl      CH3CO,acetyl    C2H4           
 C2H4O,ethylen-o CH3CHO,ethanal  CH3COOH         OHCH2COOH       C2H5           
 C2H6            C2H5OH          CH3OCH3         CH3O2CH3        C2O            
 *C3             C3H3,1-propynl  C3H3,2-propynl  C3H4,allene     C3H4,propyne   
 C3H4,cyclo-     C3H5,allyl      C3H6,propylene  C3H6,cyclo-     C3H6O,propylox 
 C3H6O,acetone   C3H6O,propanal  C3H7,n-propyl   C3H7,i-propyl   C3H8           
 C3H8O,1propanol C3H8O,2propanol C3O2            *C4             C4H2,butadiyne 
 C4H4,1,3-cyclo- C4H6,butadiene  C4H6,1butyne    C4H6,2butyne    C4H6,cyclo-    
 C4H8,1-butene   C4H8,cis2-buten C4H8,tr2-butene C4H8,isobutene  C4H8,cyclo-    
 (CH3COOH)2      C4H9,n-butyl    C4H9,i-butyl    C4H9,s-butyl    C4H9,t-butyl   
 C4H10,n-butane  C4H10,isobutane *C5             C5H6,1,3cyclo-  C5H8,cyclo-    
 C5H10,1-pentene C5H10,cyclo-    C5H11,pentyl    C5H11,t-pentyl  C5H12,n-pentane
 C5H12,i-pentane CH3C(CH3)2CH3   C6H2            C6H5,phenyl     C6H5O,phenoxy  
 C6H6            C6H5OH,phenol   C6H10,cyclo-    C6H12,1-hexene  C6H12,cyclo-   
 C6H13,n-hexyl   C6H14,n-hexane  C7H7,benzyl     C7H8            C7H8O,cresol-mx
 C7H14,1-heptene C7H15,n-heptyl  C7H16,n-heptane C7H16,2-methylh C8H8,styrene   
 C8H10,ethylbenz C8H16,1-octene  C8H17,n-octyl   C8H18,n-octane  C8H18,isooctane
 C9H19,n-nonyl   C10H8,naphthale C10H21,n-decyl  C12H9,o-bipheny C12H10,biphenyl
 HCCO            HO2             HCHO,formaldehy HCOOH           H2O2           
 (HCOOH)2        O3              C(gr)           H2O(cr)         H2O(L)         

 NOTE. WEIGHT FRACTION OF FUEL IN TOTAL FUELS AND OF OXIDANT IN TOTAL OXIDANTS






 O/F =   1.600000

                       EFFECTIVE FUEL     EFFECTIVE OXIDANT        MIXTURE
 ENTHALPY                  h(2)/R              h(1)/R               h0/R
 (KG-MOL)(K)/KG       -0.21270751E+03      0.00000000E+00     -0.81810580E+02

 KG-FORM.WT./KG             bi(2)               bi(1)               b0i
  *C                   0.71550294E-01      0.00000000E+00      0.27519344E-01
  *H                   0.13952307E+00      0.00000000E+00      0.53662720E-01
  *O                   0.00000000E+00      0.62502344E-01      0.38462981E-01

 POINT ITN      T            C           H           O 
   1    1    2784.653     -11.860      -9.361     -19.557
 Pinf/Pt = 1.783462
   2    4    2509.789     -11.567      -9.462     -20.575
 Pinf/Pt = 1.794020
   2    2    2507.028     -11.563      -9.463     -20.587
 Pinf/Pt = 1.794122
   2    1    2507.002     -11.563      -9.463     -20.587
   3    5    1538.803      -8.729      -9.846     -27.549





              THEORETICAL ROCKET PERFORMANCE ASSUMING EQUILIBRIUM

           COMPOSITION DURING EXPANSION FROM INFINITE AREA COMBUSTOR

 Pin =   290.1 PSIA
 CASE =                

             REACTANT                    WT FRACTION      ENERGY      TEMP
                                          (SEE NOTE)     KJ/KG-MOL      K  
 FUEL        RP-1                         1.0000000    -24717.700    298.000
 OXIDANT     O2                           1.0000000         0.000      0.000

 O/F=    1.60000  %FUEL= 38.461538  R,EQ.RATIO= 2.128541  PHI,EQ.RATIO= 2.128541

                 CHAMBER   THROAT     EXIT
 Pinf/P            1.0000   1.7941   19.643
 P, BAR            20.000   11.148   1.0182
 T, K             2784.65  2507.00  1538.80
 RHO, KG/CU M    1.5803 0 9.8153-1 1.4642-1
 H, KJ/KG         -680.21 -1381.70 -3539.36
 U, KJ/KG        -1945.82 -2517.43 -4234.75
 G, KJ/KG        -36604.0 -33723.6 -23390.9
 S, KJ/(KG)(K)    12.9006  12.9006  12.9006

 M, (1/n)          18.294   18.353   18.399
 (dLV/dLP)t      -1.00287 -1.00124 -1.00001
 (dLV/dLT)p        1.0585   1.0279   1.0002
 Cp, KJ/(KG)(K)    2.7849   2.4966   2.1273
 GAMMAs            1.2195   1.2353   1.2698
 SON VEL,M/SEC     1242.3   1184.5    939.7
 MACH NUMBER        0.000    1.000    2.545

 PERFORMANCE PARAMETERS

 Ae/At                      1.0000   3.3205
 CSTAR, M/SEC               1720.3   1720.3
 CF                         0.6885   1.3900
 Ivac, M/SEC                2143.3   2682.1
 Isp, M/SEC                 1184.5   2391.3


 MOLE FRACTIONS

 *CO              0.46885  0.46760  0.44346
 *CO2             0.03458  0.03747  0.06287
 *H               0.00984  0.00445  0.00002
 HCO              0.00001  0.00000  0.00000
 *H2              0.32111  0.32710  0.35518
 H2O              0.16406  0.16287  0.13848
 *O               0.00003  0.00000  0.00000
 *OH              0.00152  0.00051  0.00000
 *O2              0.00001  0.00000  0.00000

  * THERMODYNAMIC PROPERTIES FITTED TO 20000.K

    PRODUCTS WHICH WERE CONSIDERED BUT WHOSE MOLE FRACTIONS
    WERE LESS THAN 5.000000E-06 FOR ALL ASSIGNED CONDITIONS

 *C              *CH             CH2             CH3             CH2OH          
 CH3O            CH4             CH3OH           CH3OOH          COOH           
 *C2             C2H             C2H2,acetylene  C2H2,vinylidene CH2CO,ketene   
 O(CH)2O         HO(CO)2OH       C2H3,vinyl      CH3CO,acetyl    C2H4           
 C2H4O,ethylen-o CH3CHO,ethanal  CH3COOH         OHCH2COOH       C2H5           
 C2H6            C2H5OH          CH3OCH3         CH3O2CH3        C2O            
 *C3             C3H3,1-propynl  C3H3,2-propynl  C3H4,allene     C3H4,propyne   
 C3H4,cyclo-     C3H5,allyl      C3H6,propylene  C3H6,cyclo-     C3H6O,propylox 
 C3H6O,acetone   C3H6O,propanal  C3H7,n-propyl   C3H7,i-propyl   C3H8           
 C3H8O,1propanol C3H8O,2propanol C3O2            *C4             C4H2,butadiyne 
 C4H4,1,3-cyclo- C4H6,butadiene  C4H6,1butyne    C4H6,2butyne    C4H6,cyclo-    
 C4H8,1-butene   C4H8,cis2-buten C4H8,tr2-butene C4H8,isobutene  C4H8,cyclo-    
 (CH3COOH)2      C4H9,n-butyl    C4H9,i-butyl    C4H9,s-butyl    C4H9,t-butyl   
 C4H10,n-butane  C4H10,isobutane *C5             C5H6,1,3cyclo-  C5H8,cyclo-    
 C5H10,1-pentene C5H10,cyclo-    C5H11,pentyl    C5H11,t-pentyl  C5H12,n-pentane
 C5H12,i-pentane CH3C(CH3)2CH3   C6H2            C6H5,phenyl     C6H5O,phenoxy  
 C6H6            C6H5OH,phenol   C6H10,cyclo-    C6H12,1-hexene  C6H12,cyclo-   
 C6H13,n-hexyl   C6H14,n-hexane  C7H7,benzyl     C7H8            C7H8O,cresol-mx
 C7H14,1-heptene C7H15,n-heptyl  C7H16,n-heptane C7H16,2-methylh C8H8,styrene   
 C8H10,ethylbenz C8H16,1-octene  C8H17,n-octyl   C8H18,n-octane  C8H18,isooctane
 C9H19,n-nonyl   C10H8,naphthale C10H21,n-decyl  C12H9,o-bipheny C12H10,biphenyl
 HCCO            HO2             HCHO,formaldehy HCOOH           H2O2           
 (HCOOH)2        O3              C(gr)           H2O(cr)         H2O(L)         

 NOTE. WEIGHT FRACTION OF FUEL IN TOTAL FUELS AND OF OXIDANT IN TOTAL OXIDANTS





           THEORETICAL ROCKET PERFORMANCE ASSUMING FROZEN COMPOSITION

 Pin =   290.1 PSIA
 CASE =                

             REACTANT                    WT FRACTION      ENERGY      TEMP
                                          (SEE NOTE)     KJ/KG-MOL      K  
 FUEL        RP-1                         1.0000000    -24717.700    298.000
 OXIDANT     O2                           1.0000000         0.000      0.000

 O/F=    1.60000  %FUEL= 38.461538  R,EQ.RATIO= 2.128541  PHI,EQ.RATIO= 2.128541

                 CHAMBER   THROAT     EXIT
 Pinf/P            1.0000   1.8096   19.643
 P, BAR            20.000   11.052   1.0182
 T, K             2784.65  2464.63  1472.51
 RHO, KG/CU M    1.5803 0 9.8667-1 1.5214-1
 H, KJ/KG         -680.21 -1386.95 -3482.12
 U, KJ/KG        -1945.82 -2507.11 -4151.36
 G, KJ/KG        -36604.0 -33182.2 -22478.4
 S, KJ/(KG)(K)    12.9006  12.9006  12.9006

 M, (1/n)          18.294   18.294   18.294
 Cp, KJ/(KG)(K)    2.2255   2.1901   2.0112
 GAMMAs            1.2566   1.2619   1.2920
 SON VEL,M/SEC     1261.1   1188.9    929.9
 MACH NUMBER        0.000    1.000    2.546

 PERFORMANCE PARAMETERS

 Ae/At                      1.0000   3.2571
 CSTAR, M/SEC               1705.0   1705.0
 CF                         0.6973   1.3884
 Ivac, M/SEC                2131.1   2649.9
 Isp, M/SEC                 1188.9   2367.2

 MOLE FRACTIONS

 *CO             0.46885   *CO2            0.03458   *H              0.00984
 HCO             0.00001   *H2             0.32111   H2O             0.16406
 *O              0.00003   *OH             0.00152   *O2             0.00001

  * THERMODYNAMIC PROPERTIES FITTED TO 20000.K

    PRODUCTS WHICH WERE CONSIDERED BUT WHOSE MOLE FRACTIONS
    WERE LESS THAN 5.000000E-06 FOR ALL ASSIGNED CONDITIONS

 *C              *CH             CH2             CH3             CH2OH          
 CH3O            CH4             CH3OH           CH3OOH          COOH           
 *C2             C2H             C2H2,acetylene  C2H2,vinylidene CH2CO,ketene   
 O(CH)2O         HO(CO)2OH       C2H3,vinyl      CH3CO,acetyl    C2H4           
 C2H4O,ethylen-o CH3CHO,ethanal  CH3COOH         OHCH2COOH       C2H5           
 C2H6            C2H5OH          CH3OCH3         CH3O2CH3        C2O            
 *C3             C3H3,1-propynl  C3H3,2-propynl  C3H4,allene     C3H4,propyne   
 C3H4,cyclo-     C3H5,allyl      C3H6,propylene  C3H6,cyclo-     C3H6O,propylox 
 C3H6O,acetone   C3H6O,propanal  C3H7,n-propyl   C3H7,i-propyl   C3H8           
 C3H8O,1propanol C3H8O,2propanol C3O2            *C4             C4H2,butadiyne 
 C4H4,1,3-cyclo- C4H6,butadiene  C4H6,1butyne    C4H6,2butyne    C4H6,cyclo-    
 C4H8,1-butene   C4H8,cis2-buten C4H8,tr2-butene C4H8,isobutene  C4H8,cyclo-    
 (CH3COOH)2      C4H9,n-butyl    C4H9,i-butyl    C4H9,s-butyl    C4H9,t-butyl   
 C4H10,n-butane  C4H10,isobutane *C5             C5H6,1,3cyclo-  C5H8,cyclo-    
 C5H10,1-pentene C5H10,cyclo-    C5H11,pentyl    C5H11,t-pentyl  C5H12,n-pentane
 C5H12,i-pentane CH3C(CH3)2CH3   C6H2            C6H5,phenyl     C6H5O,phenoxy  
 C6H6            C6H5OH,phenol   C6H10,cyclo-    C6H12,1-hexene  C6H12,cyclo-   
 C6H13,n-hexyl   C6H14,n-hexane  C7H7,benzyl     C7H8            C7H8O,cresol-mx
 C7H14,1-heptene C7H15,n-heptyl  C7H16,n-heptane C7H16,2-methylh C8H8,styrene   
 C8H10,ethylbenz C8H16,1-octene  C8H17,n-octyl   C8H18,n-octane  C8H18,isooctane
 C9H19,n-nonyl   C10H8,naphthale C10H21,n-decyl  C12H9,o-bipheny C12H10,biphenyl
 HCCO            HO2             HCHO,formaldehy HCOOH           H2O2           
 (HCOOH)2        O3              C(gr)           H2O(cr)         H2O(L)         

 NOTE. WEIGHT FRACTION OF FUEL IN TOTAL FUELS AND OF OXIDANT IN TOTAL OXIDANTS



